<?xml version="1.0" encoding="UTF-8"?>

<!-- generated on 11/08/21 15:43:59 by Eclipse SUMO duarouter Version 1.8.0
<configuration xmlns:xsi="http://www.w3.org/2001/XMLSchema-instance" xsi:noNamespaceSchemaLocation="http://sumo.dlr.de/xsd/duarouterConfiguration.xsd">

    <input>
        <net-file value="C:\Users\faisa\Downloads\sumo-1.8.0\tools\2021-11-08-15-43-45\osm.net.xml"/>
        <route-files value="C:\Users\faisa\Downloads\sumo-1.8.0\tools\2021-11-08-15-43-45\osm.bicycle.trips.xml"/>
    </input>

    <output>
        <output-file value="C:\Users\faisa\Downloads\sumo-1.8.0\tools\2021-11-08-15-43-45\osm.bicycle.trips.xml.tmp"/>
        <write-trips value="true"/>
    </output>

    <time>
        <begin value="0"/>
        <end value="3600"/>
    </time>

    <report>
        <no-warnings value="true"/>
        <ignore-errors value="true"/>
        <no-step-log value="true"/>
    </report>

</configuration>
-->

<routes xmlns:xsi="http://www.w3.org/2001/XMLSchema-instance" xsi:noNamespaceSchemaLocation="http://sumo.dlr.de/xsd/routes_file.xsd">
    <vType id="bike_bicycle" vClass="bicycle"/>
    <trip id="bike0" type="bike_bicycle" depart="0.00" departLane="best" from="387488096#1" to="-164439327"/>
    <trip id="bike1" type="bike_bicycle" depart="7.07" departLane="best" from="-447857316#4" to="-393984894"/>
    <trip id="bike2" type="bike_bicycle" depart="14.13" departLane="best" from="394318370#4" to="393248497#1"/>
    <trip id="bike3" type="bike_bicycle" depart="21.20" departLane="best" from="69357521#4" to="-26149300#0"/>
    <trip id="bike4" type="bike_bicycle" depart="28.26" departLane="best" from="150258989#5" to="-170012501#3"/>
    <trip id="bike5" type="bike_bicycle" depart="35.33" departLane="best" from="-393878678" to="25691683#1"/>
    <trip id="bike6" type="bike_bicycle" depart="42.39" departLane="best" from="-163993620#1" to="-393613650#0"/>
    <trip id="bike7" type="bike_bicycle" depart="49.46" departLane="best" from="388006888#0" to="313843749#1"/>
    <trip id="bike8" type="bike_bicycle" depart="56.52" departLane="best" from="-393907860#0" to="377213300"/>
    <trip id="bike9" type="bike_bicycle" depart="63.59" departLane="best" from="468755769#2" to="-150258989#8"/>
    <trip id="bike10" type="bike_bicycle" depart="70.65" departLane="best" from="467392235#1" to="393764293#1"/>
    <trip id="bike11" type="bike_bicycle" depart="77.72" departLane="best" from="-718314466#0" to="-384709893#7"/>
    <trip id="bike12" type="bike_bicycle" depart="84.78" departLane="best" from="93359176#1" to="-69357521#3"/>
    <trip id="bike13" type="bike_bicycle" depart="91.85" departLane="best" from="-293306711#1" to="-26149328#2"/>
    <trip id="bike14" type="bike_bicycle" depart="98.91" departLane="best" from="552900619#3" to="377625717#3"/>
    <trip id="bike15" type="bike_bicycle" depart="105.98" departLane="best" from="468755769#0" to="393878678"/>
    <trip id="bike16" type="bike_bicycle" depart="113.04" departLane="best" from="26149328#2" to="958944692#3"/>
    <trip id="bike17" type="bike_bicycle" depart="120.11" departLane="best" from="-93359213#2" to="326522373#1"/>
    <trip id="bike18" type="bike_bicycle" depart="127.17" departLane="best" from="479037391" to="384709895#1"/>
    <trip id="bike19" type="bike_bicycle" depart="134.24" departLane="best" from="575525395#2" to="371436536"/>
    <trip id="bike20" type="bike_bicycle" depart="141.30" departLane="best" from="393764343#1" to="-223812322"/>
    <trip id="bike21" type="bike_bicycle" depart="148.37" departLane="best" from="-394318370#3" to="-479037381"/>
    <trip id="bike22" type="bike_bicycle" depart="155.43" departLane="best" from="-25822399#3" to="-395255399#1"/>
    <trip id="bike23" type="bike_bicycle" depart="162.50" departLane="best" departSpeed="max" from="-303055946#2" to="-468755769#1"/>
    <trip id="bike24" type="bike_bicycle" depart="169.56" departLane="best" from="385152954#0" to="-785709733#1"/>
    <trip id="bike25" type="bike_bicycle" depart="176.63" departLane="best" departSpeed="max" from="-926271735" to="-393764343#14"/>
    <trip id="bike26" type="bike_bicycle" depart="183.69" departLane="best" from="-447857315#2" to="821216382#1"/>
    <trip id="bike27" type="bike_bicycle" depart="190.76" departLane="best" from="388006887" to="384688158"/>
    <trip id="bike28" type="bike_bicycle" depart="197.82" departLane="best" from="-388006888#1" to="393878675"/>
    <trip id="bike29" type="bike_bicycle" depart="204.89" departLane="best" departSpeed="max" from="-385152956" to="-93359213#2"/>
    <trip id="bike30" type="bike_bicycle" depart="211.95" departLane="best" from="96198634#0" to="387488097#0"/>
    <trip id="bike31" type="bike_bicycle" depart="219.02" departLane="best" from="313843749#2" to="393248508"/>
    <trip id="bike32" type="bike_bicycle" depart="226.08" departLane="best" departSpeed="max" from="533269775" to="440739713#2"/>
    <trip id="bike33" type="bike_bicycle" depart="233.15" departLane="best" from="-394318370#4" to="-176013775"/>
    <trip id="bike34" type="bike_bicycle" depart="240.21" departLane="best" from="-552900619#4" to="-447857315#5"/>
    <trip id="bike35" type="bike_bicycle" depart="247.28" departLane="best" from="-393764343#14" to="84526820#1"/>
    <trip id="bike36" type="bike_bicycle" depart="254.34" departLane="best" from="69353439#1" to="-552900620"/>
    <trip id="bike37" type="bike_bicycle" depart="261.41" departLane="best" from="388211543" to="-958949610#2"/>
    <trip id="bike38" type="bike_bicycle" depart="268.47" departLane="best" from="772693129#0" to="210939720#1"/>
    <trip id="bike39" type="bike_bicycle" depart="275.54" departLane="best" from="-447857315#0" to="-447857309#3"/>
    <trip id="bike40" type="bike_bicycle" depart="282.60" departLane="best" from="326522373#1" to="-447857315#0"/>
    <trip id="bike41" type="bike_bicycle" depart="289.67" departLane="best" from="371436536" to="713057044"/>
    <trip id="bike42" type="bike_bicycle" depart="296.73" departLane="best" from="-958944829#2" to="-393907860#1"/>
    <trip id="bike43" type="bike_bicycle" depart="303.80" departLane="best" from="996115426" to="25691739#0"/>
    <trip id="bike44" type="bike_bicycle" depart="310.86" departLane="best" from="-293306710" to="-223813239"/>
    <trip id="bike45" type="bike_bicycle" depart="317.93" departLane="best" from="-364154088#0" to="385152951"/>
    <trip id="bike46" type="bike_bicycle" depart="324.99" departLane="best" from="447857315#0" to="150258990"/>
    <trip id="bike47" type="bike_bicycle" depart="332.06" departLane="best" from="-25210189#4" to="-93359213#5"/>
    <trip id="bike48" type="bike_bicycle" depart="339.12" departLane="best" from="96202384#1" to="28242822#2"/>
    <trip id="bike49" type="bike_bicycle" depart="346.19" departLane="best" from="958944829#0" to="570972282#0"/>
    <trip id="bike50" type="bike_bicycle" depart="353.25" departLane="best" departSpeed="max" from="-150258991" to="393764343#8"/>
    <trip id="bike51" type="bike_bicycle" depart="360.32" departLane="best" from="393248506#4" to="29979508"/>
    <trip id="bike52" type="bike_bicycle" depart="367.38" departLane="best" from="-447857315#2" to="387488097#1"/>
    <trip id="bike53" type="bike_bicycle" depart="374.45" departLane="best" from="-364154088#2" to="162561738#2"/>
    <trip id="bike54" type="bike_bicycle" depart="381.51" departLane="best" from="178404413#2" to="93359176#0"/>
    <trip id="bike55" type="bike_bicycle" depart="388.58" departLane="best" from="69353439#1" to="-447857315#0"/>
    <trip id="bike56" type="bike_bicycle" depart="395.64" departLane="best" from="25210189#0" to="-388211544#1"/>
    <trip id="bike57" type="bike_bicycle" depart="402.71" departLane="best" from="772693125#1" to="670024869"/>
    <trip id="bike58" type="bike_bicycle" depart="409.77" departLane="best" from="-479037390#1" to="387488096#1"/>
    <trip id="bike59" type="bike_bicycle" depart="416.84" departLane="best" departSpeed="max" from="377625717#0" to="-384709893#5"/>
    <trip id="bike60" type="bike_bicycle" depart="423.90" departLane="best" from="440710413#1" to="29979510#1"/>
    <trip id="bike61" type="bike_bicycle" depart="430.97" departLane="best" from="447857309#7" to="28246185"/>
    <trip id="bike62" type="bike_bicycle" depart="438.03" departLane="best" from="-150258989#0" to="-575525395#1"/>
    <trip id="bike63" type="bike_bicycle" depart="445.10" departLane="best" from="-162561738#10" to="780648238#0"/>
    <trip id="bike64" type="bike_bicycle" depart="452.16" departLane="best" from="69353439#6" to="479037374#1"/>
    <trip id="bike65" type="bike_bicycle" depart="459.23" departLane="best" departSpeed="max" from="-479264599" to="-227341950#0"/>
    <trip id="bike66" type="bike_bicycle" depart="466.29" departLane="best" from="69353439#6" to="84526823#1"/>
    <trip id="bike67" type="bike_bicycle" depart="473.36" departLane="best" from="-26149300#2" to="23019727#2"/>
    <trip id="bike68" type="bike_bicycle" depart="480.42" departLane="best" from="-25691683#0" to="425555630#2"/>
    <trip id="bike69" type="bike_bicycle" depart="487.49" departLane="best" from="440710544" to="-371436540#1"/>
    <trip id="bike70" type="bike_bicycle" depart="494.55" departLane="best" from="223813243#1" to="314738746#1"/>
    <trip id="bike71" type="bike_bicycle" depart="501.62" departLane="best" from="-447857315#1" to="683185817"/>
    <trip id="bike72" type="bike_bicycle" depart="508.68" departLane="best" from="150258989#6" to="-393764343#6"/>
    <trip id="bike73" type="bike_bicycle" depart="515.75" departLane="best" departSpeed="max" from="27414767#0" to="393878678"/>
    <trip id="bike74" type="bike_bicycle" depart="522.81" departLane="best" from="-393613651" to="-552900619#2"/>
    <trip id="bike75" type="bike_bicycle" depart="529.88" departLane="best" from="96202384#0" to="388006887"/>
    <trip id="bike76" type="bike_bicycle" depart="536.94" departLane="best" departSpeed="max" from="163993620#0" to="25822399#4"/>
    <trip id="bike77" type="bike_bicycle" depart="544.01" departLane="best" from="-371436540#2" to="-394318370#0"/>
    <trip id="bike78" type="bike_bicycle" depart="551.07" departLane="best" from="-69357521#3" to="377213297#1"/>
    <trip id="bike79" type="bike_bicycle" depart="558.14" departLane="best" from="-394318370#5" to="-393907860#2"/>
    <trip id="bike80" type="bike_bicycle" depart="565.20" departLane="best" departSpeed="max" from="-25691683#1" to="385152952#3"/>
    <trip id="bike81" type="bike_bicycle" depart="572.27" departLane="best" from="-394318370#4" to="73204671#0"/>
    <trip id="bike82" type="bike_bicycle" depart="579.33" departLane="best" from="575525393#2" to="-25210189#7"/>
    <trip id="bike83" type="bike_bicycle" depart="586.40" departLane="best" from="-42299170#0" to="38903574#6"/>
    <trip id="bike84" type="bike_bicycle" depart="593.46" departLane="best" from="-393764343#6" to="-377103315"/>
    <trip id="bike85" type="bike_bicycle" depart="600.53" departLane="best" from="821216382#2" to="371436527#2"/>
    <trip id="bike86" type="bike_bicycle" depart="607.59" departLane="best" from="223813240" to="447857309#5"/>
    <trip id="bike87" type="bike_bicycle" depart="614.66" departLane="best" from="468755769#1" to="-393248489#3"/>
    <trip id="bike88" type="bike_bicycle" depart="621.72" departLane="best" departSpeed="max" from="-29979510#1" to="152101003"/>
    <trip id="bike90" type="bike_bicycle" depart="635.85" departLane="best" from="393907870#0" to="393248489#3"/>
    <trip id="bike91" type="bike_bicycle" depart="642.92" departLane="best" departSpeed="max" from="958949619" to="-26149331"/>
    <trip id="bike92" type="bike_bicycle" depart="649.98" departLane="best" departSpeed="max" from="-958944829#5" to="-718314466#1"/>
    <trip id="bike93" type="bike_bicycle" depart="657.05" departLane="best" from="575525395#2" to="-447857309#5"/>
    <trip id="bike94" type="bike_bicycle" depart="664.11" departLane="best" from="-393248489#1" to="170012501#1"/>
    <trip id="bike95" type="bike_bicycle" depart="671.18" departLane="best" from="150258989#5" to="-468755769#2"/>
    <trip id="bike96" type="bike_bicycle" depart="678.24" departLane="best" from="-447857309#5" to="772693132"/>
    <trip id="bike97" type="bike_bicycle" depart="685.31" departLane="best" from="164439325#1" to="575525393#2"/>
    <trip id="bike98" type="bike_bicycle" depart="692.37" departLane="best" from="29979508" to="-223813245#1"/>
    <trip id="bike99" type="bike_bicycle" depart="699.44" departLane="best" departSpeed="max" from="997946638" to="479037383#1"/>
    <trip id="bike101" type="bike_bicycle" depart="713.57" departLane="best" from="552900619#4" to="-387830973#0"/>
    <trip id="bike102" type="bike_bicycle" depart="720.63" departLane="best" from="227341950#1" to="-393764343#8"/>
    <trip id="bike103" type="bike_bicycle" depart="727.70" departLane="best" from="-958944829#4" to="-227341950#1"/>
    <trip id="bike104" type="bike_bicycle" depart="734.76" departLane="best" from="-93359213#4" to="958949612"/>
    <trip id="bike105" type="bike_bicycle" depart="741.83" departLane="best" from="-447857315#1" to="447857309#4"/>
    <trip id="bike106" type="bike_bicycle" depart="748.89" departLane="best" from="188215405" to="150258990"/>
    <trip id="bike107" type="bike_bicycle" depart="755.96" departLane="best" from="93359176#1" to="96202364#0"/>
    <trip id="bike108" type="bike_bicycle" depart="763.02" departLane="best" from="303055946#1" to="393764343#6"/>
    <trip id="bike109" type="bike_bicycle" depart="770.09" departLane="best" from="-385152952#0" to="-479037392"/>
    <trip id="bike110" type="bike_bicycle" depart="777.15" departLane="best" from="93359245" to="371436540#2"/>
    <trip id="bike111" type="bike_bicycle" depart="784.22" departLane="best" from="28242822#1" to="408845038"/>
    <trip id="bike112" type="bike_bicycle" depart="791.28" departLane="best" from="-24045593#1" to="377103316#2"/>
    <trip id="bike113" type="bike_bicycle" depart="798.35" departLane="best" from="25210189#2" to="552900619#1"/>
    <trip id="bike114" type="bike_bicycle" depart="805.41" departLane="best" from="-385152952#3" to="93359213#5"/>
    <trip id="bike115" type="bike_bicycle" depart="812.48" departLane="best" from="-25822399#3" to="-393248438#0"/>
    <trip id="bike116" type="bike_bicycle" depart="819.54" departLane="best" from="377103317" to="393248489#4"/>
    <trip id="bike117" type="bike_bicycle" depart="826.61" departLane="best" departSpeed="max" from="-408845038" to="-364154088#2"/>
    <trip id="bike118" type="bike_bicycle" depart="833.67" departLane="best" from="69357521#3" to="-447857309#3"/>
    <trip id="bike119" type="bike_bicycle" depart="840.74" departLane="best" from="377103317" to="384709895#2"/>
    <trip id="bike120" type="bike_bicycle" depart="847.80" departLane="best" from="150258989#2" to="377103316#1"/>
    <trip id="bike121" type="bike_bicycle" depart="854.87" departLane="best" from="26149299" to="821216382#0"/>
    <trip id="bike122" type="bike_bicycle" depart="861.93" departLane="best" from="-393764343#0" to="393764343#3"/>
    <trip id="bike123" type="bike_bicycle" depart="869.00" departLane="best" from="-42299170#1" to="-958949610#2"/>
    <trip id="bike124" type="bike_bicycle" depart="876.06" departLane="best" from="393248489#2" to="-479037395"/>
    <trip id="bike125" type="bike_bicycle" depart="883.13" departLane="best" from="-552900620" to="42299163#1"/>
    <trip id="bike126" type="bike_bicycle" depart="890.19" departLane="best" departSpeed="max" from="-25691686#1" to="194714719"/>
    <trip id="bike127" type="bike_bicycle" depart="897.26" departLane="best" departSpeed="max" from="997946638" to="96202364#1"/>
    <trip id="bike128" type="bike_bicycle" depart="904.32" departLane="best" departSpeed="max" from="-25691686#1" to="-393764343#7"/>
    <trip id="bike129" type="bike_bicycle" depart="911.39" departLane="best" from="-447857315#1" to="809062692"/>
    <trip id="bike130" type="bike_bicycle" depart="918.45" departLane="best" departSpeed="max" from="69353444" to="688177216"/>
    <trip id="bike131" type="bike_bicycle" depart="925.52" departLane="best" from="-87053632#1" to="-385152951"/>
    <trip id="bike132" type="bike_bicycle" depart="932.58" departLane="best" from="479037395" to="393764300#1"/>
    <trip id="bike133" type="bike_bicycle" depart="939.65" departLane="best" departSpeed="max" from="381988749#0" to="96198629#0"/>
    <trip id="bike134" type="bike_bicycle" depart="946.71" departLane="best" from="388006888#5" to="-150258992#0"/>
    <trip id="bike135" type="bike_bicycle" depart="953.78" departLane="best" from="478909403" to="-479037394"/>
    <trip id="bike136" type="bike_bicycle" depart="960.84" departLane="best" from="38903574#2" to="84526771#0"/>
    <trip id="bike137" type="bike_bicycle" depart="967.91" departLane="best" from="-377625717#1" to="-360827911#2"/>
    <trip id="bike138" type="bike_bicycle" depart="974.97" departLane="best" from="-360827911#2" to="326522374"/>
    <trip id="bike139" type="bike_bicycle" depart="982.04" departLane="best" from="-447857316#2" to="382224391"/>
    <trip id="bike140" type="bike_bicycle" depart="989.10" departLane="best" from="393835202" to="-393764343#1"/>
    <trip id="bike141" type="bike_bicycle" depart="996.17" departLane="best" from="385152952#3" to="-447857315#1"/>
    <trip id="bike142" type="bike_bicycle" depart="1003.23" departLane="best" departSpeed="max" from="227500391" to="73204671#0"/>
    <trip id="bike143" type="bike_bicycle" depart="1010.30" departLane="best" from="552900619#2" to="-26149326#0"/>
    <trip id="bike145" type="bike_bicycle" depart="1024.43" departLane="best" from="-150258989#4" to="440710413#2"/>
    <trip id="bike146" type="bike_bicycle" depart="1031.49" departLane="best" from="385152954#1" to="-447857314#1"/>
    <trip id="bike147" type="bike_bicycle" depart="1038.56" departLane="best" from="395255399#1" to="326522373#0"/>
    <trip id="bike148" type="bike_bicycle" depart="1045.62" departLane="best" from="152101003" to="-162561738#1"/>
    <trip id="bike149" type="bike_bicycle" depart="1052.69" departLane="best" from="-25691739#0" to="69353439#2"/>
    <trip id="bike150" type="bike_bicycle" depart="1059.75" departLane="best" from="73204671#1" to="313843749#1"/>
    <trip id="bike151" type="bike_bicycle" depart="1066.82" departLane="best" from="482907800" to="377103316#0"/>
    <trip id="bike152" type="bike_bicycle" depart="1073.88" departLane="best" from="-384709895#1" to="-371436527#1"/>
    <trip id="bike153" type="bike_bicycle" depart="1080.95" departLane="best" departSpeed="max" from="-479264599" to="718314465"/>
    <trip id="bike154" type="bike_bicycle" depart="1088.01" departLane="best" from="447857315#4" to="570972282#0"/>
    <trip id="bike155" type="bike_bicycle" depart="1095.08" departLane="best" from="718314466#1" to="-393764343#3"/>
    <trip id="bike156" type="bike_bicycle" depart="1102.14" departLane="best" from="-447857309#5" to="-293306710"/>
    <trip id="bike157" type="bike_bicycle" depart="1109.21" departLane="best" from="447857309#8" to="69353439#6"/>
    <trip id="bike158" type="bike_bicycle" depart="1116.27" departLane="best" from="-958949612" to="384709895#2"/>
    <trip id="bike159" type="bike_bicycle" depart="1123.34" departLane="best" from="-385152952#0" to="785709733#0"/>
    <trip id="bike160" type="bike_bicycle" depart="1130.40" departLane="best" departSpeed="max" from="642213889" to="958944829#1"/>
    <trip id="bike161" type="bike_bicycle" depart="1137.47" departLane="best" from="476631724" to="688177217"/>
    <trip id="bike162" type="bike_bicycle" depart="1144.53" departLane="best" from="-162563271#0" to="393984892"/>
    <trip id="bike163" type="bike_bicycle" depart="1151.60" departLane="best" departSpeed="max" from="-688177217" to="785709733#1"/>
    <trip id="bike164" type="bike_bicycle" depart="1158.66" departLane="best" from="447857316#3" to="575525395#2"/>
    <trip id="bike165" type="bike_bicycle" depart="1165.73" departLane="best" from="476631724" to="-447857315#4"/>
    <trip id="bike166" type="bike_bicycle" depart="1172.79" departLane="best" from="447857312#1" to="-29979524"/>
    <trip id="bike167" type="bike_bicycle" depart="1179.86" departLane="best" departSpeed="max" from="684165134" to="552900625"/>
    <trip id="bike168" type="bike_bicycle" depart="1186.92" departLane="best" from="-393907860#2" to="468755769#0"/>
    <trip id="bike169" type="bike_bicycle" depart="1193.99" departLane="best" departSpeed="max" from="210939720#0" to="-533269774"/>
    <trip id="bike170" type="bike_bicycle" depart="1201.05" departLane="best" from="447857315#3" to="-394318370#4"/>
    <trip id="bike171" type="bike_bicycle" depart="1208.12" departLane="best" from="-162561738#8" to="-393249358#1"/>
    <trip id="bike172" type="bike_bicycle" depart="1215.18" departLane="best" departSpeed="max" from="-688177216" to="575525395#3"/>
    <trip id="bike173" type="bike_bicycle" depart="1222.25" departLane="best" from="93359226#3" to="-468755769#3"/>
    <trip id="bike174" type="bike_bicycle" depart="1229.31" departLane="best" from="387488097#1" to="-958949617"/>
    <trip id="bike175" type="bike_bicycle" depart="1236.38" departLane="best" departSpeed="max" from="958949615#0" to="293867127"/>
    <trip id="bike176" type="bike_bicycle" depart="1243.44" departLane="best" from="84526820#0" to="-360827911#2"/>
    <trip id="bike177" type="bike_bicycle" depart="1250.51" departLane="best" from="958944692#2" to="-388211544#1"/>
    <trip id="bike178" type="bike_bicycle" depart="1257.58" departLane="best" from="93359213#4" to="-447857315#2"/>
    <trip id="bike179" type="bike_bicycle" depart="1264.64" departLane="best" from="-360827911#3" to="162561738#12"/>
    <trip id="bike180" type="bike_bicycle" depart="1271.71" departLane="best" from="393907860#2" to="-552900619#4"/>
    <trip id="bike181" type="bike_bicycle" depart="1278.77" departLane="best" from="377213304#3" to="25822389#2"/>
    <trip id="bike182" type="bike_bicycle" depart="1285.84" departLane="best" from="-93359245" to="371436535"/>
    <trip id="bike183" type="bike_bicycle" depart="1292.90" departLane="best" from="-447857310#1" to="393764343#0"/>
    <trip id="bike185" type="bike_bicycle" depart="1307.03" departLane="best" departSpeed="max" from="27414767#0" to="393764343#7"/>
    <trip id="bike186" type="bike_bicycle" depart="1314.10" departLane="best" from="395255399#1" to="393248455"/>
    <trip id="bike188" type="bike_bicycle" depart="1328.23" departLane="best" from="38903574#3" to="-684165134"/>
    <trip id="bike189" type="bike_bicycle" depart="1335.29" departLane="best" from="-552900619#3" to="479264599"/>
    <trip id="bike190" type="bike_bicycle" depart="1342.36" departLane="best" from="393878671#1" to="-479037395"/>
    <trip id="bike191" type="bike_bicycle" depart="1349.42" departLane="best" departSpeed="max" from="-479264599" to="-96198635"/>
    <trip id="bike192" type="bike_bicycle" depart="1356.49" departLane="best" departSpeed="max" from="-958944829#5" to="-479037391"/>
    <trip id="bike193" type="bike_bicycle" depart="1363.55" departLane="best" from="-377103318" to="150258989#9"/>
    <trip id="bike194" type="bike_bicycle" depart="1370.62" departLane="best" from="84526820#1" to="393248497#1"/>
    <trip id="bike195" type="bike_bicycle" depart="1377.68" departLane="best" from="73204671#0" to="384709893#6"/>
    <trip id="bike196" type="bike_bicycle" depart="1384.75" departLane="best" from="-479037392" to="314738735"/>
    <trip id="bike197" type="bike_bicycle" depart="1391.81" departLane="best" from="-150258989#0" to="-479037380#0"/>
    <trip id="bike198" type="bike_bicycle" depart="1398.88" departLane="best" from="162561738#10" to="375371401"/>
    <trip id="bike199" type="bike_bicycle" depart="1405.94" departLane="best" from="388040068" to="223812322"/>
    <trip id="bike200" type="bike_bicycle" depart="1413.01" departLane="best" from="164439325#0" to="-393764343#8"/>
    <trip id="bike201" type="bike_bicycle" depart="1420.07" departLane="best" from="223813241" to="718314466#1"/>
    <trip id="bike202" type="bike_bicycle" depart="1427.14" departLane="best" from="447857315#3" to="-388006867#3"/>
    <trip id="bike203" type="bike_bicycle" depart="1434.20" departLane="best" from="-26149300#1" to="25822399#2"/>
    <trip id="bike204" type="bike_bicycle" depart="1441.27" departLane="best" from="385152952#2" to="-69353456#5"/>
    <trip id="bike205" type="bike_bicycle" depart="1448.33" departLane="best" from="479037374#0" to="42299163#1"/>
    <trip id="bike206" type="bike_bicycle" depart="1455.40" departLane="best" from="393248489#3" to="-394318370#0"/>
    <trip id="bike207" type="bike_bicycle" depart="1462.46" departLane="best" from="-393613650#1" to="-164439327"/>
    <trip id="bike208" type="bike_bicycle" depart="1469.53" departLane="best" from="-447857309#0" to="227338318#1"/>
    <trip id="bike209" type="bike_bicycle" depart="1476.59" departLane="best" from="552900620" to="-25691683#0"/>
    <trip id="bike210" type="bike_bicycle" depart="1483.66" departLane="best" from="-96202384#0" to="385152952#2"/>
    <trip id="bike211" type="bike_bicycle" depart="1490.72" departLane="best" from="-393249358#0" to="393613651"/>
    <trip id="bike212" type="bike_bicycle" depart="1497.79" departLane="best" from="23019752#0" to="-447857309#1"/>
    <trip id="bike213" type="bike_bicycle" depart="1504.85" departLane="best" from="388211543" to="-150258989#6"/>
    <trip id="bike214" type="bike_bicycle" depart="1511.92" departLane="best" from="425555630#2" to="440710413#1"/>
    <trip id="bike215" type="bike_bicycle" depart="1518.98" departLane="best" from="-360827911#1" to="150258991"/>
    <trip id="bike216" type="bike_bicycle" depart="1526.05" departLane="best" departSpeed="max" from="-388211542" to="93359213#1"/>
    <trip id="bike217" type="bike_bicycle" depart="1533.11" departLane="best" from="25822399#2" to="-223813245#1"/>
    <trip id="bike218" type="bike_bicycle" depart="1540.18" departLane="best" from="-447857309#4" to="479264599"/>
    <trip id="bike219" type="bike_bicycle" depart="1547.24" departLane="best" from="188215406" to="447857315#1"/>
    <trip id="bike220" type="bike_bicycle" depart="1554.31" departLane="best" from="38903574#6" to="96198629#1"/>
    <trip id="bike221" type="bike_bicycle" depart="1561.37" departLane="best" from="377103318" to="926271735"/>
    <trip id="bike222" type="bike_bicycle" depart="1568.44" departLane="best" from="69357521#4" to="384709893#3"/>
    <trip id="bike223" type="bike_bicycle" depart="1575.50" departLane="best" from="393878671#0" to="25691683#1"/>
    <trip id="bike224" type="bike_bicycle" depart="1582.57" departLane="best" from="479037392" to="314738735"/>
    <trip id="bike225" type="bike_bicycle" depart="1589.63" departLane="best" from="718314465" to="394318370#5"/>
    <trip id="bike226" type="bike_bicycle" depart="1596.70" departLane="best" from="223813243#0" to="-447857313#0"/>
    <trip id="bike227" type="bike_bicycle" depart="1603.76" departLane="best" from="-447857309#2" to="387488096#0"/>
    <trip id="bike228" type="bike_bicycle" depart="1610.83" departLane="best" from="440710544" to="26149300#1"/>
    <trip id="bike229" type="bike_bicycle" depart="1617.89" departLane="best" from="385079851" to="-447857317"/>
    <trip id="bike230" type="bike_bicycle" depart="1624.96" departLane="best" from="-25822389#2" to="-479037374#1"/>
    <trip id="bike231" type="bike_bicycle" depart="1632.02" departLane="best" from="-447857316#0" to="-552900628"/>
    <trip id="bike232" type="bike_bicycle" depart="1639.09" departLane="best" departSpeed="max" from="27414767#0" to="-377213304#0"/>
    <trip id="bike233" type="bike_bicycle" depart="1646.15" departLane="best" from="-394472053#1" to="393613650#0"/>
    <trip id="bike234" type="bike_bicycle" depart="1653.22" departLane="best" from="393764343#11" to="-24045593#1"/>
    <trip id="bike235" type="bike_bicycle" depart="1660.28" departLane="best" from="-958949617" to="303055946#2"/>
    <trip id="bike236" type="bike_bicycle" depart="1667.35" departLane="best" from="-996115426" to="-393764343#12"/>
    <trip id="bike237" type="bike_bicycle" depart="1674.41" departLane="best" from="150258989#3" to="73204671#0"/>
    <trip id="bike238" type="bike_bicycle" depart="1681.48" departLane="best" from="371436536" to="393613650#2"/>
    <trip id="bike239" type="bike_bicycle" depart="1688.54" departLane="best" departSpeed="max" from="552900629" to="43661121#1"/>
    <trip id="bike240" type="bike_bicycle" depart="1695.61" departLane="best" from="-93359213#5" to="-150258989#6"/>
    <trip id="bike241" type="bike_bicycle" depart="1702.67" departLane="best" from="-772693124#1" to="42299166#0"/>
    <trip id="bike242" type="bike_bicycle" depart="1709.74" departLane="best" departSpeed="max" from="552900627" to="93359176#0"/>
    <trip id="bike243" type="bike_bicycle" depart="1716.80" departLane="best" from="150258989#2" to="395255399#1"/>
    <trip id="bike244" type="bike_bicycle" depart="1723.87" departLane="best" from="293306710" to="377625717#3"/>
    <trip id="bike245" type="bike_bicycle" depart="1730.93" departLane="best" from="-393907860#1" to="-393907860#1"/>
    <trip id="bike246" type="bike_bicycle" depart="1738.00" departLane="best" from="162563271#0" to="-170012501#2"/>
    <trip id="bike247" type="bike_bicycle" depart="1745.06" departLane="best" from="-69353456#4" to="393248506#0"/>
    <trip id="bike248" type="bike_bicycle" depart="1752.13" departLane="best" from="-958949610#1" to="-385152954#1"/>
    <trip id="bike249" type="bike_bicycle" depart="1759.19" departLane="best" from="223581247#3" to="-371436540#1"/>
    <trip id="bike250" type="bike_bicycle" depart="1766.26" departLane="best" from="384709893#6" to="-170012501#0"/>
    <trip id="bike251" type="bike_bicycle" depart="1773.32" departLane="best" from="-958944692#2" to="364154091"/>