<?xml version="1.0" encoding="UTF-8"?>

<!-- generated on 11/08/21 15:43:59 by Eclipse SUMO duarouter Version 1.8.0
<configuration xmlns:xsi="http://www.w3.org/2001/XMLSchema-instance" xsi:noNamespaceSchemaLocation="http://sumo.dlr.de/xsd/duarouterConfiguration.xsd">

    <input>
        <net-file value="C:\Users\faisa\Downloads\sumo-1.8.0\tools\2021-11-08-15-43-45\osm.net.xml"/>
        <additional-files value="C:\Users\faisa\Downloads\sumo-1.8.0\tools\2021-11-08-15-43-45\osm_stops.add.xml,C:\Users\faisa\Downloads\sumo-1.8.0\tools\2021-11-08-15-43-45\osm_pt.rou.xml"/>
        <route-files value="C:\Users\faisa\Downloads\sumo-1.8.0\tools\2021-11-08-15-43-45\osm.pedestrian.trips.xml"/>
    </input>

    <output>
        <output-file value="C:\Users\faisa\Downloads\sumo-1.8.0\tools\2021-11-08-15-43-45\osm.pedestrian.rou.xml"/>
        <alternatives-output value="C:\Users\faisa\Downloads\sumo-1.8.0\tools\2021-11-08-15-43-45\osm.pedestrian.rou.alt.xml"/>
    </output>

    <time>
        <begin value="0"/>
        <end value="3600"/>
    </time>

    <report>
        <no-warnings value="true"/>
        <ignore-errors value="true"/>
        <no-step-log value="true"/>
    </report>

</configuration>
-->

<routes xmlns:xsi="http://www.w3.org/2001/XMLSchema-instance" xsi:noNamespaceSchemaLocation="http://sumo.dlr.de/xsd/routes_file.xsd">
    <vType id="ped_pedestrian" vClass="pedestrian"/>
    <person id="ped0" type="ped_pedestrian" depart="0.00">
        <walk edges="394660927#2 394660927#1 360827911#1 338332423#0 663774150#2 663774150#1 663774150#0 393596509 393596508#0" busStop="6212933653"/> <!-- Esch/Alzette, Porte des Sciences -->
        <ride busStop="1115018384" lines="4:0" intended="pt_bus_4:0.0" depart="409.00"/> <!-- Esch, Raemerich -->
        <walk edges="366838964 393248498#0 23019717 377213301#2 26149299 26149300#2 -170012501#3"/>
    </person>
    <person id="ped2" type="ped_pedestrian" depart="8.09">
        <walk edges="468755769#0 393248511#0 440710413#2"/>
    </person>
    <person id="ped3" type="ped_pedestrian" depart="12.13">
        <walk edges="69357521#3 445988114#6 570972281#2 69353439#6 69353439#7 663774150#0 663774150#1 663774150#2 338332423#0 360827911#1 -360827911#2"/>
    </person>
    <person id="ped4" type="ped_pedestrian" depart="16.18">
        <walk edges="29979508 150258989#2 150258989#0 96202384#0 96202384#1 388006867#1" busStop="4464473490"/> <!-- Esch, Tramschapp -->
        <ride busStop="1115018437" lines="15:1" intended="pt_bus_15:1.0" depart="660.00"/> <!-- Esch, Raemerich -->
        <ride busStop="-8528731983" lines="204:2" intended="pt_bus_204:2.1" depart="790.00"/> <!-- Belvaux, Brill -->
        <walk edges="-223581247#0 -223581247#2"/>
    </person>
    <person id="ped5" type="ped_pedestrian" depart="20.22">
        <walk edges="-479037374#1 -69357521#3 69353439#2 69353439#1 425555630#2 227337561" busStop="3968040959"/> <!-- Esch/Alzette, Cité des Sciences -->
        <ride busStop="-1649300091" lines="332:0" intended="pt_bus_332:0.0" depart="828.00"/> <!-- Esch, Rue Henri Koch -->
        <walk edges="-25210189#4 -38903574#1 -772693129#6 -772693129#4 382420733"/>
    </person>
    <person id="ped6" type="ped_pedestrian" depart="24.26">
        <walk edges="-210939720#0 479178950#1 479178950#0 511852937#4 511852934#1 511852934#0 511852935#1 511852932 511852941#4 511852941#5 446729531#3 446729531#2 -227341950#0 445988118#0 394660928#1 394660928#0 394660933 394660931#0 162562785 394660931#2 -447857309#4 -447857309#5 -447857309#6 -447857309#7 -447857314#1 -447857315#0"/>
    </person>
    <person id="ped7" type="ped_pedestrian" depart="28.31">
        <walk edges="394660935#1 394660933 394660928#0 394660928#1 445988118#0 -227341950#0 393596509 393596508#0" busStop="6212933653"/> <!-- Esch/Alzette, Porte des Sciences -->
        <ride busStop="1115018384" lines="4:0" intended="pt_bus_4:0.0" depart="409.00"/> <!-- Esch, Raemerich -->
        <walk edges="366838964 388280785 28242822#0 393248498#4 385080086#0 218390407#0 -371436540#2 -364154091 -93359213#5 93359213#4 93359213#2 93359213#1 364154097#1 -93359226#0 -93359226#1 -93359226#2 -93359226#3 388211544#2"/>
    </person>
    <person id="ped8" type="ped_pedestrian" depart="32.35">
        <walk edges="-479037390#1 -393764343#10 -393764343#11 -479037392 -393764343#5 479037389 353178841#0 353178841#1 479178957#1 533269770#0 533269771#2 533269771#1 -227338318#0" busStop="-6212933654"/> <!-- Esch/Alzette, Porte des Sciences -->
        <ride busStop="4408239877" lines="306:1" intended="pt_bus_306:1.0" depart="505.00"/> <!-- Esch/Alzette, Porte de France -->
        <walk edges="338332423#0 338332424#3 338332424#2 393764306"/>
    </person>
    <person id="ped9" type="ped_pedestrian" depart="36.40">
        <walk edges="511155571#1 511155571#0 477115073#0 446729531#0 446729531#1 393596509 393596508#0" busStop="6212933653"/> <!-- Esch/Alzette, Porte des Sciences -->
        <ride busStop="1631828668" lines="4:0" intended="pt_bus_4:0.0" depart="409.00"/> <!-- Esch, Rue des Tramways -->
        <walk edges="150258989#5 -150258989#6 -150258989#8 -150258989#9"/>
    </person>
    <person id="ped10" type="ped_pedestrian" depart="40.44">
        <walk edges="482654639#1 482654639#0 393764341#0 393764341#1 393764341#2 393764341#3 479037388#6 42299654#0 363316832 393596509 393764297#3 446729530#1"/>
    </person>
    <person id="ped11" type="ped_pedestrian" depart="44.48">
        <walk edges="188215405 364154088#2 364154088#1 -393984894 -718314466#1 -718314466#2 -339708929 -393764343#14 -393764343#13 -393764343#12 -393764343#11 -393764343#10"/>
    </person>
    <person id="ped12" type="ped_pedestrian" depart="48.53">
        <walk edges="926288971#1 84526823#0 440710544 440710413#3 393248506#1 393248506#0 251421193#0 393248497#2 -393249358#0 -393249358#1 -170012501#0 170012501#1"/>
    </person>
    <person id="ped13" type="ped_pedestrian" depart="52.57">
        <walk edges="-364154090#1 -364154090#0 -223813243#0 -93359213#5 -93359206 -371436527#0 -371436527#1"/>
    </person>
    <person id="ped14" type="ped_pedestrian" depart="56.61">
        <walk edges="552900625 552900619#4 -162561738#10 -162561738#8 -162561738#6 -447857311#0 -447857311#1 -447857309#4 394660931#2 162562785 394660931#0 394660933 447857322#0 447857322#1 393764297#1" busStop="1625279566"/> <!-- Esch/Alzette, Porte de France -->
        <ride busStop="6212933652" lines="306:0" intended="pt_bus_306:0.0" depart="394.00"/> <!-- Esch/Alzette, Porte des Sciences -->
        <walk edges="393596508#0 533269771#2 533269770#0 479178957#1 353178841#1 353178841#0 353046113 393764343#1"/>
    </person>
    <person id="ped15" type="ped_pedestrian" depart="60.66">
        <walk edges="482654639#2 482654639#1 482654639#0 393764341#0 393764341#1 393764341#2 738164999#4 630262535#0 630262533 630262534 393764316#1 477115072#1 379136137#11 163993197 379136812#1 379136812#0 477115073#1 477115073#0 447857322#2 447857322#1 447857322#0 394660933 394660931#0 162562785 394660931#2 -447857309#3 -447857309#2 447857316#4"/>
    </person>
    <person id="ped17" type="ped_pedestrian" depart="68.75">
        <walk edges="24667797 382420753 -25210189#0 -25210189#2 -38903574#1 -38903574#2 -38903574#3 38903574#4"/>
    </person>
    <person id="ped18" type="ped_pedestrian" depart="72.79">
        <walk edges="511852941#4 511852932 511852935#1 511852934#0 511852933 511852941#0 445988116#2 425555630#2 227337561 426538578 467392235#1 393878671#1"/>
    </person>
    <person id="ped19" type="ped_pedestrian" depart="76.83">
        <walk edges="575525395#2 575525395#3 388006867#3 388211543 23019727#2 23019727#1 188215407 385079500#0 393248498#5 393248498#4 393248498#3 940978677#1 96198634#2 -96198629#1 96198630#0 313843749#3 393248498#0 393248497#0" busStop="1115018437"/> <!-- Esch, Raemerich -->
        <ride busStop="-6212933651" lines="15:1" intended="pt_bus_15:1.0" depart="747.00"/> <!-- Esch/Alzette, Porte des Sciences -->
        <walk edges="-227338318#0 533269771#1 -393596508#1 393596508#2"/>
    </person>
    <person id="ped20" type="ped_pedestrian" depart="80.88">
        <walk edges="447857309#1 -447857309#2 -447857309#3 394660931#2 162562785 394660931#0 394660933 447857322#0 447857322#1 393764297#1" busStop="1625279566"/> <!-- Esch/Alzette, Porte de France -->
        <ride busStop="6212933652" lines="4:0" intended="pt_bus_4:0.0" depart="265.00"/> <!-- Esch/Alzette, Porte des Sciences -->
        <walk edges="393596508#0 -393596508#1 393596508#2 425555630#2 227337561 426538581#0 393984892 718314466#0 718314466#1 -227500391"/>
    </person>
    <person id="ped21" type="ped_pedestrian" depart="84.92">
        <walk edges="-482442757 482442757 482442759#1 482442759#0 363316832 393596508#0" busStop="6212933653"/> <!-- Esch/Alzette, Porte des Sciences -->
        <ride busStop="1115018384" lines="4:0" intended="pt_bus_4:0.0" depart="409.00"/> <!-- Esch, Raemerich -->
        <walk edges="366838964 388280785 28242822#0 393248498#4 385080086#0 218390407#0 -371436540#2 -364154091 -93359213#5 93359213#4 93359213#2 93359213#1 364154097#1 -93359226#0"/>
    </person>
    <person id="ped22" type="ped_pedestrian" depart="88.97">
        <walk edges="-29979510#1 -29979508 150258989#2 150258989#0 96202384#0 96202384#1 388006867#1" busStop="4464473490"/> <!-- Esch, Tramschapp -->
        <ride busStop="-6212933651" lines="15:1" intended="pt_bus_15:1.0" depart="660.00"/> <!-- Esch/Alzette, Porte des Sciences -->
        <walk edges="-227338318#0 393835185 -227341950#0 445988118#0 394660928#1 394660928#0 394660933 394660931#0 162562785 394660931#2 -447857309#3 -447857309#2 -447857309#1 -447857309#0 -552900619#0 552900619#1 -552900619#1"/>
    </person>
    <person id="ped23" type="ped_pedestrian" depart="93.01">
        <walk edges="-377103316#0 -293306710 69353456#1 -25691739#1 393907872#3 926288970 223581247#3" busStop="1115018462"/> <!-- Belvaux, Brill -->
        <ride busStop="1115018384" lines="325:0" intended="pt_bus_325:0.0" depart="378.00"/> <!-- Esch, Raemerich -->
        <ride busStop="1631828668" lines="4:0" intended="pt_bus_4:0.0" depart="559.00"/> <!-- Esch, Rue des Tramways -->
        <walk edges="150258989#5 150258989#6 24045593#0 -87053632#1 -87053632#0"/>
    </person>
    <person id="ped24" type="ped_pedestrian" depart="97.05">
        <walk edges="393984894 -718314466#0 393984892 426538581#0 227337561 425555630#2 -227338318#2 -227338318#1 227338318#0"/>
    </person>
    <person id="ped25" type="ped_pedestrian" depart="101.10">
        <walk edges="227341950#3 -227341950#1 445988118#0 394660928#1 394660928#0 394660933 394660931#0 162562785 394660931#2 -447857309#3 -447857309#2 -447857309#1 -447857315#6 -447857318"/>
    </person>
    <person id="ped26" type="ped_pedestrian" depart="105.14">
        <walk edges="-772693125#1 -772693125#0 -38903574#3 -38903574#4 -38903574#5 -38903574#6 25210189#5" busStop="5670312476"/> <!-- Esch, Rue Henri Koch -->
        <ride busStop="1115018437" lines="7:0" intended="pt_bus_7:0.0" depart="463.00"/> <!-- Esch, Raemerich -->
        <walk edges="393248497#0 393248498#0 366838964" busStop="1115018384"/> <!-- Esch, Raemerich -->
        <ride busStop="5146079337" lines="1:1" intended="pt_bus_1:1.0" depart="660.00"/> <!-- Esch, Tramschapp -->
        <ride busStop="1631828668" lines="2:1" intended="pt_bus_2:1.0" depart="762.00"/> <!-- Esch, Rue des Tramways -->
        <walk edges="150258989#5 -150258989#6 821216382#0 821216382#1"/>
    </person>
    <person id="ped27" type="ped_pedestrian" depart="109.19">
        <walk edges="394660933 394660928#0 394660928#1 445988118#0 -227341950#0 393835185 -227338318#0 533269771#1 533269771#2 533269770#0 479178957#1 353178841#1 353178841#0 479037389 393764343#5"/>
    </person>
    <person id="ped28" type="ped_pedestrian" depart="113.23">
        <walk edges="-393984894 364154088#0 366838967 426538581#2 426538581#1 426538581#0 227337561 425555630#2 -227338318#2 -227338318#1 -227338318#0" busStop="-6212933654"/> <!-- Esch/Alzette, Porte des Sciences -->
        <ride busStop="4408239877" lines="306:1" intended="pt_bus_306:1.0" depart="505.00"/> <!-- Esch/Alzette, Porte de France -->
        <walk edges="338332423#0 360827910#0 394660937 -520519213 447857316#3"/>
    </person>
    <person id="ped29" type="ped_pedestrian" depart="117.27">
        <walk edges="-393764343#8 -393764343#7 -393764343#6 -393764343#5 479037389 353178841#0 353178841#1 479178957#1 479178957#0 393596508#2 425555630#2 227337561" busStop="3968040959"/> <!-- Esch/Alzette, Cité des Sciences -->
        <ride busStop="-1649300091" lines="332:0" intended="pt_bus_332:0.0" depart="828.00"/> <!-- Esch, Rue Henri Koch -->
        <walk edges="-25210189#4 -25210189#2 -25210189#0 382420753 24667797 382224391 24701143"/>
    </person>
    <person id="ped30" type="ped_pedestrian" depart="121.32">
        <walk edges="96198634#0 -96198634#1 -96198629#1 96198630#0 313843749#3 393248498#0 393248497#0" busStop="1115018437"/> <!-- Esch, Raemerich -->
        <ride busStop="-6212933651" lines="7:0" intended="pt_bus_7:0.0" depart="585.00"/> <!-- Esch/Alzette, Porte des Sciences -->
        <walk edges="-227338318#0" busStop="-6212933654"/> <!-- Esch/Alzette, Porte des Sciences -->
        <ride busStop="4408239877" lines="309:1" intended="pt_bus_309:1.0" depart="830.00"/> <!-- Esch/Alzette, Porte de France -->
        <walk edges="338332423#0 360827911#1 394660927#1 394660927#2 394660927#3"/>
    </person>
    <person id="ped31" type="ped_pedestrian" depart="125.36">
        <walk edges="393248470 170012501#1 170012501#0 393248497#0" busStop="1115018437"/> <!-- Esch, Raemerich -->
        <ride busStop="-6212933651" lines="7:0" intended="pt_bus_7:0.0" depart="585.00"/> <!-- Esch/Alzette, Porte des Sciences -->
        <walk edges="-227338318#0 393835185 227341950#0 445988118#1 445988114#1 445988114#0"/>
    </person>
    <person id="ped33" type="ped_pedestrian" depart="133.45">
        <walk edges="-482907800 -93359226#2 -93359226#1 -93359226#0 364154097#1 93359213#1 93359213#2 93359213#4 -93359213#5 -364154091 371436540#2 371436540#1 28242822#2 96198635 377213305 -96198629#0 96198633#1 313843749#1 375371401 393248511#1 393248511#0 440710413#2 440710413#3 440710544 84526771#0 84526771#1 96202364#0 96202364#1 -223581247#5"/>
    </person>
    <person id="ped34" type="ped_pedestrian" depart="137.49">
        <walk edges="150258990 150258992#0 150258989#5 150258989#4 150258989#3 150258989#2 150258989#0 96202384#0 96202384#1 388006867#1" busStop="4464473490"/> <!-- Esch, Tramschapp -->
        <ride busStop="1115018437" lines="15:1" intended="pt_bus_15:1.0" depart="660.00"/> <!-- Esch, Raemerich -->
        <walk edges="393248497#0 393248498#0 366838964" busStop="1115018384"/> <!-- Esch, Raemerich -->
        <ride busStop="-1649300091" lines="7:1" intended="pt_bus_7:1.0" depart="944.00"/> <!-- Esch, Rue Henri Koch -->
        <walk edges="-25210189#4 -25210189#5 -38903574#6 -38903574#5 -38903574#4 -38903574#3 -772693125#0 -772693125#2"/>
    </person>
    <person id="ped35" type="ped_pedestrian" depart="141.54">
        <walk edges="-468755769#0 393248511#0 440710413#2 440710413#3 440710544 84526823#0 926288971#1 84526822#0"/>
    </person>
    <person id="ped37" type="ped_pedestrian" depart="149.62">
        <walk edges="395255399#0 -395255399#1 -26149300#1 -26149300#2 26149299 377213301#2 23019717 393248497#0" busStop="1115018437"/> <!-- Esch, Raemerich -->
        <ride busStop="-8528731983" lines="204:2" intended="pt_bus_204:2.1" depart="790.00"/> <!-- Belvaux, Brill -->
        <walk edges="-223581247#0 25691683#0 25691686#0 25691686#1"/>
    </person>
    <person id="ped38" type="ped_pedestrian" depart="153.67">
        <walk edges="769481077 -769481077 -769481078 -25691686#0 25691683#0 -223581247#2 223581247#3" busStop="1115018462"/> <!-- Belvaux, Brill -->
        <ride busStop="5146079337" lines="1:1" intended="pt_bus_1:1.0" depart="559.00"/> <!-- Esch, Tramschapp -->
        <walk edges="23019727#1 388280784#0 940978675 326522373#0 377213295 -364154095 371436527#1 371436527#0"/>
    </person>
    <person id="ped39" type="ped_pedestrian" depart="157.71">
        <walk edges="-772693124#0 772693124#1 -38903574#4 -38903574#5 -38903574#6 25210189#5" busStop="5670312476"/> <!-- Esch, Rue Henri Koch -->
        <ride busStop="4248491038" lines="332:1" intended="pt_bus_332:1.0" depart="502.00"/> <!-- Esch/Alzette, Cité des Sciences -->
        <walk edges="69353459#0" busStop="3968109962"/> <!-- Esch/Alzette, Cité des Sciences -->
        <ride busStop="4408239877" lines="332:1" intended="pt_bus_332:1.0" depart="724.00"/> <!-- Esch/Alzette, Porte de France -->
        <walk edges="338332423#0 360827911#1 394660927#1 394660927#2 -684165134"/>
    </person>
    <person id="ped40" type="ped_pedestrian" depart="161.76">
        <walk edges="393248498#0 393248497#0" busStop="1115018437"/> <!-- Esch, Raemerich -->
        <ride busStop="-8528731983" lines="204:2" intended="pt_bus_204:2.0" depart="190.00"/> <!-- Belvaux, Brill -->
        <walk edges="-223581247#0 -25691683#0 -25691686#0 -769481078 -769481077"/>
    </person>
    <person id="ped41" type="ped_pedestrian" depart="165.80">
        <walk edges="393764297#3 446729531#2 446729531#3 511852941#5 511852941#4 511852932 511852935#1 511852934#0 511852933 511852941#0 445988116#2 425555630#2 227337561 426538581#0 393984892 718314465"/>
    </person>
    <person id="ped42" type="ped_pedestrian" depart="169.84">
        <walk edges="25822391 25822399#1 25822399#2 25822399#3 -25822389#2 393248506#0 -468755769#1 468755769#0 -958944829#1 440710412#0 194714719 28246185 423133512 423133516 426538581#2 718314465 -718314466#0 -718314466#1 -718314466#2 -339708929 -393764343#14 -393764343#13 -393764343#12 -393764343#11 -393764343#10 -479037390#0"/>
    </person>
    <person id="ped43" type="ped_pedestrian" depart="173.89">
        <walk edges="996642881 -69353456#4 69353456#3 377283173 377103316#0 -293306710 69353456#1 -25691739#1 393907872#3 926288970 223581247#3" busStop="1115018462"/> <!-- Belvaux, Brill -->
        <ride busStop="5146079337" lines="1:1" intended="pt_bus_1:1.0" depart="559.00"/> <!-- Esch, Tramschapp -->
        <walk edges="23019727#1 23019727#0 388280781 385079851 152101003 -25210189#10 384709893#1 -384709893#2 384709893#3"/>
    </person>
    <person id="ped44" type="ped_pedestrian" depart="177.93">
        <walk edges="-364154088#2 28242822#2 28242822#1 393248498#4 393248498#5 385079500#0 188215407 23019727#1" busStop="5146079337"/> <!-- Esch, Tramschapp -->
        <ride busStop="1631828668" lines="4:0" intended="pt_bus_4:0.0" depart="621.00"/> <!-- Esch, Rue des Tramways -->
        <walk edges="150258989#5 150258989#6 24045593#0 -24045593#1"/>
    </person>
    <person id="ped45" type="ped_pedestrian" depart="181.98">
        <walk edges="-377625717#0 29979524 96202364#1 23019752#0 -393907870#1 393907870#0 996115426 393907860#0"/>
    </person>
    <person id="ped46" type="ped_pedestrian" depart="186.02">
        <walk edges="482442759#2 482442759#1 482442759#0 363316832 393596508#0" busStop="6212933653"/> <!-- Esch/Alzette, Porte des Sciences -->
        <ride busStop="1631828668" lines="4:0" intended="pt_bus_4:0.0" depart="409.00"/> <!-- Esch, Rue des Tramways -->
        <walk edges="150258989#5 150258989#4 150258989#3 29979508"/>
    </person>
    <person id="ped47" type="ped_pedestrian" depart="190.06">
        <walk edges="-25822399#2 -25822399#3 -25822399#4 393248497#2 -393249358#0 -393249358#1 -170012501#0 251420261#2 251420261#1"/>
    </person>
    <person id="ped48" type="ped_pedestrian" depart="194.11">
        <walk edges="971622255#1 -364154088#0 -364154088#1 -364154088#2 28242822#2 28242822#1 393248498#4 393248498#5 385079500#0 188215407 23019727#0 388280781 385079851 152101003 -25210189#10 384709893#1 -385152952#3 -385152954#0 385152955"/>
    </person>
    <person id="ped49" type="ped_pedestrian" depart="198.15">
        <walk edges="940942610#1 96202384#1 575525395#1"/>
    </person>
    <person id="ped50" type="ped_pedestrian" depart="202.20">
        <walk edges="-162561738#1 -162561738#2 -162561738#4 -162561738#6 -162561738#8 -162561738#10 -447857314#0 447857315#0"/>
    </person>
    <person id="ped51" type="ped_pedestrian" depart="206.24">
        <walk edges="440739713#3 533269773 445988114#5 445988114#6 570972282#0 476631724 780648238#0 809062693 194714712 393248506#4 393248506#3 393248506#2 440710413#3 440710544 84526823#0 84526823#1 84526823#2 387830973#0"/>
    </person>
    <person id="ped52" type="ped_pedestrian" depart="210.28">
        <walk edges="-772693125#1 -772693125#0 -38903574#3 -38903574#4 -38903574#5 -38903574#6 25210189#5" busStop="5670312476"/> <!-- Esch, Rue Henri Koch -->
        <ride busStop="4248491038" lines="332:1" intended="pt_bus_332:1.0" depart="502.00"/> <!-- Esch/Alzette, Cité des Sciences -->
        <walk edges="69353459#0" busStop="3968109962"/> <!-- Esch/Alzette, Cité des Sciences -->
        <ride busStop="4408239877" lines="332:1" intended="pt_bus_332:1.0" depart="724.00"/> <!-- Esch/Alzette, Porte de France -->
        <walk edges="338332423#0 663774150#2 447857322#0 394660928#0"/>
    </person>
    <person id="ped53" type="ped_pedestrian" depart="214.33">
        <walk edges="-377625717#3 387830973#0 84526823#2 84526823#1 84526823#0 440710544 440710413#3 440710413#2 393248511#0 393248511#1 375371401 313843749#1 96198633#1 -96198629#1 96198634#2 940978677#1 393248498#3 393248498#4 393248498#5 385079500#0 188215407 23019727#1 388280784#0 940978675 326522373#1"/>
    </person>
    <person id="ped54" type="ped_pedestrian" depart="218.37">
        <walk edges="364154090#1 -364154090#0 -223813243#0 -93359213#5 -364154091 371436540#2 371436540#1 28242822#2 96198635 377213305 -96198629#0 96198630#0 313843749#3 393248498#0 393248497#0" busStop="1115018437"/> <!-- Esch, Raemerich -->
        <ride busStop="-6212933651" lines="15:1" intended="pt_bus_15:1.0" depart="747.00"/> <!-- Esch/Alzette, Porte des Sciences -->
        <walk edges="-227338318#0 713057043 363316832 42299654#0 42299654#1 379136122 379136137#5 379136137#6 379136137#7 379136137#8 477115075#2 379136137#10 477115075#4 379136137#12 477115075#6 379136137#14 926271732#1"/>
    </person>
    <person id="ped57" type="ped_pedestrian" depart="230.50">
        <walk edges="753485006 753485007 694995541 69357529#1 -69353456#4 996642881 -753393310#1 227341950#3 -227341950#1 -227341950#0 663774150#0"/>
    </person>
    <person id="ped58" type="ped_pedestrian" depart="234.55">
        <walk edges="-958944829#3 393248506#4 194714712 809062693 809062692 393878671#0 393878671#1 467392235#1 425555627#0 425555627#1 69353459#0" busStop="3968109962"/> <!-- Esch/Alzette, Cité des Sciences -->
        <ride busStop="4408239877" lines="332:1" intended="pt_bus_332:1.0" depart="724.00"/> <!-- Esch/Alzette, Porte de France -->
        <walk edges="338332423#0 360827911#1 394660927#1 394660927#2"/>
    </person>
    <person id="ped59" type="ped_pedestrian" depart="238.59">
        <walk edges="393764343#3 353046113 353178841#0 353178841#1 479178957#1 533269770#0 533269771#2 533269771#1 -227338318#0" busStop="-6212933654"/> <!-- Esch/Alzette, Porte des Sciences -->
        <ride busStop="4408239877" lines="306:1" intended="pt_bus_306:1.0" depart="505.00"/> <!-- Esch/Alzette, Porte de France -->
        <walk edges="338332423#0 -162563271#0 162563271#1 -393764314"/>
    </person>
    <person id="ped60" type="ped_pedestrian" depart="242.63">
        <walk edges="479037387#1 575224405#2 393764297#1" busStop="1625279566"/> <!-- Esch/Alzette, Porte de France -->
        <ride busStop="6212933652" lines="306:0" intended="pt_bus_306:0.0" depart="394.00"/> <!-- Esch/Alzette, Porte des Sciences -->
        <walk edges="393596508#0" busStop="6212933653"/> <!-- Esch/Alzette, Porte des Sciences -->
        <ride busStop="1115018384" lines="7:1" intended="pt_bus_7:1.0" depart="740.00"/> <!-- Esch, Raemerich -->
        <walk edges="366838964 388280785 28242822#0 393248498#4 393248498#5 385079500#0 188215407 23019727#1 23019727#2 388211543 388006867#3"/>
    </person>
    <person id="ped61" type="ped_pedestrian" depart="246.68">
        <walk edges="479178950#2 479178950#1 -227338318#1 533269771#1 393596508#0" busStop="6212933653"/> <!-- Esch/Alzette, Porte des Sciences -->
        <ride busStop="5146079337" lines="4:0" intended="pt_bus_4:0.0" depart="409.00"/> <!-- Esch, Tramschapp -->
        <walk edges="23019727#1 23019727#0 388280781 385079851 152101003 -25210189#10 384709893#1 -385152952#3 -385152952#2 -385152952#1 -385152952#0 384709893#7 -384709893#6 385152956"/>
    </person>
    <person id="ped62" type="ped_pedestrian" depart="250.72">
        <walk edges="-150258989#0 96202384#0 96202384#1 388006867#1" busStop="4464473490"/> <!-- Esch, Tramschapp -->
        <ride busStop="-6212933651" lines="15:1" intended="pt_bus_15:1.0" depart="660.00"/> <!-- Esch/Alzette, Porte des Sciences -->
        <walk edges="-227338318#0 393835185 -227341950#0 445988118#0 394660928#1 394660928#0 394660933 394660931#0 162562785 394660931#2 -447857309#3 -447857310#1 -447857310#0 162561738#2"/>
    </person>
    <person id="ped64" type="ped_pedestrian" depart="258.81">
        <walk edges="688177214 688177215 688177213#0 388006867#3 388211543 23019727#2 23019727#1 188215407 385079500#0 393248498#5 393248498#4 393248498#3 940978677#1 96198634#2 -96198629#1 96198633#1 313843749#1 375371401 393248511#1 393248511#0 393248508 520948066 520948065"/>
    </person>
    <person id="ped65" type="ped_pedestrian" depart="262.85">
        <walk edges="149642749 809062692 809062693 194714712 387488097#2 387488097#1 387488097#0 23019752#0 223581247#5 -223581247#4 -223581247#3 -223581247#2 25691683#0 25691686#0 25691686#1 -25691686#1"/>
    </person>
    <person id="ped66" type="ped_pedestrian" depart="266.90">
        <walk edges="688177213#0 388006867#1 96202384#1 96202384#0 393878678 24045593#1 87053632#1 87053632#0"/>
    </person>
    <person id="ped67" type="ped_pedestrian" depart="270.94">
        <walk edges="-339708929 -718314466#2 -718314466#1 -718314466#0 718314465 426538581#2 423133516 423133512 28246185 194714719 440710413#0 440710413#1 440710413#2 440710413#3 440710544 84526823#0 84526823#1 84526823#2 387830973#0 377625717#3"/>
    </person>
    <person id="ped68" type="ped_pedestrian" depart="274.99">
        <walk edges="-26149326#1 393248497#0" busStop="1115018437"/> <!-- Esch, Raemerich -->
        <ride busStop="-6212933651" lines="7:0" intended="pt_bus_7:0.0" depart="585.00"/> <!-- Esch/Alzette, Porte des Sciences -->
        <walk edges="-227338318#0 -227338318#1 -227338318#2 69353439#1 479037385#0"/>
    </person>
    <person id="ped69" type="ped_pedestrian" depart="279.03">
        <walk edges="479037388#4 379136137#3 379136137#4 379136122 42299654#1 42299654#0 363316832 393596508#0" busStop="6212933653"/> <!-- Esch/Alzette, Porte des Sciences -->
        <ride busStop="5146079337" lines="4:0" intended="pt_bus_4:0.0" depart="409.00"/> <!-- Esch, Tramschapp -->
        <walk edges="23019727#1 23019727#0 388280781 385079851 152101003 -25210189#10 384709893#1 -384709893#2 -385152953"/>
    </person>
    <person id="ped70" type="ped_pedestrian" depart="283.07">
        <walk edges="377213297#1 371436535 371436536 385079500#0 393248498#5 393248498#4 28242822#0 388280785 366838964" busStop="1115018384"/> <!-- Esch, Raemerich -->
        <ride busStop="-1649300091" lines="7:1" intended="pt_bus_7:1.0" depart="944.00"/> <!-- Esch, Rue Henri Koch -->
        <walk edges="-25210189#4 38903574#1"/>
    </person>
    <person id="ped71" type="ped_pedestrian" depart="287.12">
        <walk edges="-772693124#1 -38903574#4 -38903574#5 -38903574#6 25210189#5" busStop="5670312476"/> <!-- Esch, Rue Henri Koch -->
        <ride busStop="4248491038" lines="332:1" intended="pt_bus_332:1.0" depart="502.00"/> <!-- Esch/Alzette, Cité des Sciences -->
        <walk edges="69353459#0" busStop="3968109962"/> <!-- Esch/Alzette, Cité des Sciences -->
        <ride busStop="4408239877" lines="332:1" intended="pt_bus_332:1.0" depart="724.00"/> <!-- Esch/Alzette, Porte de France -->
        <walk edges="338332423#0 360827911#1 -163993620#2 670024857"/>
    </person>
    <person id="ped72" type="ped_pedestrian" depart="291.16">
        <walk edges="29979510#0 150258989#3 150258989#2 150258989#0 96202384#0 96202384#1 388006867#1" busStop="4464473490"/> <!-- Esch, Tramschapp -->
        <ride busStop="1115018437" lines="15:1" intended="pt_bus_15:1.0" depart="660.00"/> <!-- Esch, Raemerich -->
        <walk edges="393248497#0 -393249358#1 -393249358#0 393248497#2 251421193#0 393248506#0 -468755769#1"/>
    </person>
    <person id="ped73" type="ped_pedestrian" depart="295.21">
        <walk edges="388006867#3 388006867#1" busStop="4464473490"/> <!-- Esch, Tramschapp -->
        <ride busStop="-6212933651" lines="15:1" intended="pt_bus_15:1.0" depart="660.00"/> <!-- Esch/Alzette, Porte des Sciences -->
        <walk edges="-227338318#0 393835185 -227341950#0 445988118#0 394660928#1 394660928#0 394660933 394660931#0 162562785 394660931#2 -447857309#3 -447857309#2 447857316#4"/>
    </person>
    <person id="ped74" type="ped_pedestrian" depart="299.25">
        <walk edges="-447857315#3 -447857311#1 -447857309#4 394660931#2 162562785 394660931#0 394660933 394660928#0 394660928#1 445988118#0 -227341950#0 393596509 393596508#0" busStop="6212933653"/> <!-- Esch/Alzette, Porte des Sciences -->
        <ride busStop="1115018384" lines="7:1" intended="pt_bus_7:1.0" depart="740.00"/> <!-- Esch, Raemerich -->
        <walk edges="366838964 388280785 28242822#0 393248498#4 393248498#5 385079500#0 188215407 23019727#1" busStop="5146079337"/> <!-- Esch, Tramschapp -->
        <ride busStop="1631828668" lines="4:0" intended="pt_bus_4:0.1" depart="1221.00"/> <!-- Esch, Rue des Tramways -->