<?xml version="1.0" encoding="UTF-8"?>

<!-- generated on 11/08/21 15:43:54 by Eclipse SUMO polyconvert Version 1.8.0
<configuration xmlns:xsi="http://www.w3.org/2001/XMLSchema-instance" xsi:noNamespaceSchemaLocation="http://sumo.dlr.de/xsd/polyconvertConfiguration.xsd">

    <input>
        <net-file value="osm.net.xml"/>
        <osm-files value="osm_bbox.osm.xml"/>
        <osm.keep-full-type value="true"/>
        <type-file value="C:\Users\faisa\Downloads\sumo-1.8.0\data\typemap\osmPolyconvert.typ.xml"/>
    </input>

    <output>
        <output-file value="osm.poly.xml"/>
    </output>

    <processing>
        <poi-layer-offset value="5"/>
    </processing>

    <report>
        <verbose value="true"/>
    </report>

</configuration>
-->

<additional xmlns:xsi="http://www.w3.org/2001/XMLSchema-instance" xsi:noNamespaceSchemaLocation="http://sumo.dlr.de/xsd/additional_file.xsd">
    <location netOffset="-712340.29,-5487007.71" convBoundary="-5547.14,-1787.85,4956.72,2073.61" origBoundary="5.855340,49.483741,6.000677,49.516114" projParameter="+proj=utm +zone=31 +ellps=WGS84 +datum=WGS84 +units=m +no_defs"/>

    <poly id="148555054" type="building.yes" color="255,230,230" fill="0" layer="-1.00" shape="2139.814992,1312.640946 2147.120251,1316.001055 2151.429517,1306.340770 2147.335374,1304.643331 2150.913203,1297.358853 2005.441928,1229.838407 2012.827594,1213.653008 2033.957409,1223.456978 2038.241838,1214.608302 2058.723649,1223.930448 2060.778032,1219.435868 2055.394041,1216.986411 2058.867790,1209.397209 1984.039396,1176.284676 1980.256788,1184.540847 1974.481198,1181.909087 1972.498577,1186.239533 1979.862005,1189.601687 1978.870693,1191.766909 1977.688859,1191.219467 1975.118602,1196.851553 1982.347116,1200.141611 1984.908392,1194.553705 1982.764733,1193.578797 1983.763721,1191.402745 1990.237253,1194.351411 1986.591632,1201.889361 2008.170921,1211.510522 2000.632442,1228.079549 1965.136110,1212.712215 1965.334873,1208.211417 1964.025321,1203.907342 1961.362801,1200.273661 1957.642371,1197.733879 1953.288257,1196.560726 1948.788273,1196.884711 1944.650832,1198.681300 1941.348344,1201.735288 1939.241784,1205.715765 1938.581123,1210.165002 1939.429456,1214.584521 1941.697880,1218.469869 1945.134761,1221.399256 1949.341088,1223.011887 1953.851642,1223.155879 1958.152970,1221.799907 1961.701210,1219.501464 1974.566607,1225.261954 1953.573505,1271.147777 1977.551741,1282.065479 1983.801255,1268.406943 1997.239227,1274.535122 1991.101069,1287.941980 2014.132272,1298.421835 2020.112165,1285.353877 2033.870515,1291.628344 2027.834680,1304.827677 2050.174612,1315.002187 2056.384596,1301.431226 2070.328428,1307.779884 2063.919972,1321.788317 2086.986221,1332.292142 2093.331576,1318.414838 2106.890607,1324.592598"/>
    <poly id="148555059" type="building.school" color="255,230,230" fill="1" layer="-1.00" shape="2214.429694,1379.278252 2292.625756,1404.455881 2306.133797,1361.315469 2329.577629,1369.029861 2335.539674,1350.361881 2320.055542,1345.399051 2320.608788,1343.684187 2491.513672,1398.623532 2496.131977,1378.934184 2489.498613,1376.924842 2489.999281,1375.441701 2488.087833,1374.831978 2272.803366,1305.353444 2274.052577,1301.428371 2238.817854,1290.121679 2237.415155,1294.263363 2232.923849,1292.895324 2230.464801,1301.403850 2231.387104,1301.729613 2231.029244,1302.717439 2229.373495,1302.240336 2225.970255,1313.372331 2235.385353,1316.169965 2229.679192,1332.766346 2225.248211,1331.155773 2224.111078,1334.628840 2228.476682,1336.058718 2214.429694,1379.278252"/>
    <poly id="148555060" type="amenity.school" color="237,199,199" fill="1" layer="-1.00" shape="2491.513672,1398.623532 2471.634719,1485.463352 2321.386262,1438.763568 2155.554349,1384.229657 2161.444649,1373.997074 2095.084823,1348.096034 1989.404207,1302.146956 1838.860133,1218.690367 1871.425187,1149.491458 1904.155737,1148.562917 1947.873064,1151.584459 1974.249381,1155.916984 1995.434146,1161.013946 2015.907261,1167.062648 2036.377455,1174.658717 2142.047029,1221.498708 2221.507698,1266.540624 2239.715121,1276.909431 2249.771974,1281.636004 2372.615557,1332.040431 2387.286219,1337.227398 2487.960988,1360.766680 2491.120913,1363.173424 2491.150355,1364.632937 2488.087833,1374.831978 2489.999281,1375.441701 2489.498613,1376.924842 2496.131977,1378.934184 2491.513672,1398.623532"/>
    <poly id="148555097" type="building.yes" color="255,230,230" fill="1" layer="-1.00" shape="2028.295225,1266.773007 2042.652852,1273.293719 2049.109970,1259.153588 2034.745073,1252.632576 2028.295225,1266.773007"/>
    <poly id="148555098" type="building.yes" color="255,230,230" fill="1" layer="-1.00" shape="1991.286987,1250.043509 2005.644697,1256.564121 2012.101731,1242.423949 1997.736751,1235.903036 1991.286987,1250.043509"/>
    <poly id="148555099" type="building.yes" color="255,230,230" fill="1" layer="-1.00" shape="2064.253715,1283.094095 2078.618498,1289.615189 2085.075697,1275.475099 2070.710882,1268.953989 2064.253715,1283.094095"/>
    <poly id="148555100" type="building.yes" color="255,230,230" fill="1" layer="-1.00" shape="2100.411162,1299.512325 2113.195110,1305.492607 2118.822413,1293.101073 2105.669308,1287.106251 2100.411162,1299.512325"/>
    <poly id="155391357" type="landuse.brownfield" color="194,194,130" fill="1" layer="-3.00" shape="705.909396,639.317559 701.307693,626.101869 713.172719,622.279801 712.099734,617.829504 717.278017,617.965147 717.824142,616.049495 720.128654,623.676086 723.349452,623.256524 728.503681,624.192756 733.275958,626.739361 737.008578,630.659112 739.311382,635.547126 739.971858,640.905274 738.909095,646.207179 736.231689,650.900477 732.211684,654.517123 727.254309,656.705598 721.862219,657.218384 716.580047,656.032246 711.940407,653.245931 708.505876,649.304453 706.431213,644.514430 705.909396,639.317559"/>
    <poly id="155391357#1" type="natural.water" color="181,209,209" fill="1" layer="-4.00" shape="705.909396,639.317559 701.307693,626.101869 713.172719,622.279801 712.099734,617.829504 717.278017,617.965147 717.824142,616.049495 720.128654,623.676086 723.349452,623.256524 728.503681,624.192756 733.275958,626.739361 737.008578,630.659112 739.311382,635.547126 739.971858,640.905274 738.909095,646.207179 736.231689,650.900477 732.211684,654.517123 727.254309,656.705598 721.862219,657.218384 716.580047,656.032246 711.940407,653.245931 708.505876,649.304453 706.431213,644.514430 705.909396,639.317559"/>
    <poly id="155391359" type="landuse.brownfield" color="194,194,130" fill="1" layer="-3.00" shape="717.278017,617.965147 712.099734,617.829504 706.457739,617.686871 705.510514,615.768501 700.777007,613.713254 695.736028,609.508611 692.190005,603.781637 690.516944,596.691824 691.285653,589.452549 694.399712,582.861561 699.517882,577.673645 706.067424,574.445293 713.315619,573.559758 720.454611,575.096782 726.686103,578.891569 731.315899,584.527351 733.824994,591.371560 733.938919,598.656474 731.639168,605.557583 727.179701,611.327832 721.064785,615.307873 717.824142,616.049495 717.278017,617.965147"/>
    <poly id="155391359#1" type="natural.scrub" color="140,196,107" fill="1" layer="-4.00" shape="717.278017,617.965147 712.099734,617.829504 706.457739,617.686871 705.510514,615.768501 700.777007,613.713254 695.736028,609.508611 692.190005,603.781637 690.516944,596.691824 691.285653,589.452549 694.399712,582.861561 699.517882,577.673645 706.067424,574.445293 713.315619,573.559758 720.454611,575.096782 726.686103,578.891569 731.315899,584.527351 733.824994,591.371560 733.938919,598.656474 731.639168,605.557583 727.179701,611.327832 721.064785,615.307873 717.824142,616.049495 717.278017,617.965147"/>
    <poly id="162562782" type="landuse.brownfield" color="194,194,130" fill="1" layer="-3.00" shape="731.758305,565.052166 737.562569,581.999656 738.858627,593.538759 737.867899,601.448416 730.158284,618.401907 739.790654,632.560170 741.872914,639.565812 740.284578,646.628321 737.506686,651.852035 733.268937,655.660546 727.733899,658.717012 721.760260,659.084608 714.186478,657.730956 703.315567,651.517241 696.157851,650.090822 685.584908,618.262480 683.405239,614.303278 678.729899,602.042103 691.184557,582.023424 697.940004,575.752890 731.758305,565.052166"/>
    <poly id="162562782#1" type="natural.scrub" color="140,196,107" fill="1" layer="-4.00" shape="731.758305,565.052166 737.562569,581.999656 738.858627,593.538759 737.867899,601.448416 730.158284,618.401907 739.790654,632.560170 741.872914,639.565812 740.284578,646.628321 737.506686,651.852035 733.268937,655.660546 727.733899,658.717012 721.760260,659.084608 714.186478,657.730956 703.315567,651.517241 696.157851,650.090822 685.584908,618.262480 683.405239,614.303278 678.729899,602.042103 691.184557,582.023424 697.940004,575.752890 731.758305,565.052166"/>
    <poly id="163992121" type="building.office" color="255,230,230" fill="1" layer="-1.00" shape="978.155280,480.690248 963.999565,485.602138 960.581714,486.793109 954.525812,469.434737 957.612701,468.364396 956.419350,464.955760 953.391240,466.006138 951.429386,460.374379 968.943806,454.302566 978.155280,480.690248"/>
    <poly id="163992513" type="landuse.grass" color="194,194,130" fill="1" layer="-3.00" shape="943.802324,492.426152 940.850049,486.722242 937.530706,469.092488 945.118081,469.734503 947.954888,484.317414 952.440084,492.163047 943.802324,492.426152"/>
    <poly id="164439716" type="waterway.stream" color="181,209,209" fill="0" layer="-4.00" shape="279.589351,974.722611 287.860274,982.537267 314.890697,997.262332 332.212324,999.407774 343.670392,996.882685 356.135301,986.949504 363.677634,982.969153 371.415032,976.591880 402.528308,971.405475 412.818312,966.864529 430.284901,962.514753 515.973179,951.890276 534.127571,949.794125 552.647366,947.066642 580.715908,940.593398 664.737771,925.887376 689.543033,924.085101 696.259697,919.538564"/>
    <poly id="165298202" type="building.yes" color="255,230,230" fill="1" layer="-1.00" shape="1145.437802,493.563357 1160.963313,488.482941 1152.098932,461.585271 1136.573358,466.665714 1145.437802,493.563357"/>
    <poly id="165298203" type="building.office" color="255,230,230" fill="1" layer="-1.00" shape="1179.439413,456.388846 1159.408567,462.840112 1178.755314,522.521063 1182.536886,521.299947 1184.716401,528.031296 1191.816526,525.749051 1189.675661,519.141668 1198.831859,516.194126 1179.439413,456.388846"/>
    <poly id="178404406" type="landuse.village_green" color="242,242,204" fill="1" layer="-3.00" shape="1690.424912,1202.504785 1686.104175,1195.867178 1683.277807,1188.464477 1682.077038,1180.646937 1682.539880,1172.738887 1684.659171,1165.107414 1688.341766,1158.093962 1693.408533,1152.014337 1699.646768,1147.116231 1706.778620,1143.644777 1714.479936,1141.731966 1722.420631,1141.476157 1730.230684,1142.885080 1737.571647,1145.900908 1744.115805,1150.377177 1749.572944,1156.135495 1753.418054,1162.331438 1755.999250,1169.145664 1757.202662,1176.339919 1756.996221,1183.623500 1755.375938,1190.729074 1752.402966,1197.391866 1748.203162,1203.360782 1742.923657,1208.396690 1736.767301,1212.318316 1729.964146,1214.989978 1722.772756,1216.288249 1715.462241,1216.190306 1708.301273,1214.684440 1701.592966,1211.804820 1695.556018,1207.704758 1690.424912,1202.504785"/>
    <poly id="210939073" type="natural.water" color="181,209,209" fill="1" layer="-4.00" shape="1548.158399,892.104365 1554.384687,889.176036 1561.159930,887.961374 1568.023738,888.553632 1574.492444,890.900430 1580.129736,894.851049 1584.533060,900.133642 1587.412368,906.380585 1588.553053,913.149289 1587.893391,919.980905 1585.466190,926.409163 1581.448590,931.984594 1575.107600,936.912205 1567.575579,939.677930 1559.550194,940.053114 1551.794948,937.978670 1545.026246,933.671966 1539.888809,927.514536 1536.859833,920.092853 1536.223526,912.108272 1538.044768,904.309203 1542.150008,897.423568 1548.158399,892.104365"/>
    <poly id="213850285" type="building.office" color="255,230,230" fill="1" layer="-1.00" shape="766.969928,430.649426 787.040435,424.098108 784.687774,418.629255 810.924580,410.315351 812.261740,415.610915 831.404167,409.435349 815.105655,361.986975 800.039271,367.565013 806.912930,394.617904 779.020622,403.735409 766.881709,378.391426 750.709309,383.703705 766.969928,430.649426"/>
    <poly id="213850448" type="building.yes" color="255,230,230" fill="1" layer="-1.00" shape="973.565690,645.367848 1015.986540,631.231762 1025.219035,658.733615 1044.506822,716.229834 1002.093757,730.365966 982.798361,672.869624 973.565690,645.367848"/>
    <poly id="217859674" type="building.yes" color="255,230,230" fill="1" layer="-1.00" shape="706.431213,644.514430 708.505876,649.304453 704.125151,650.836428 698.631329,648.573343 684.730886,607.096904 689.318955,605.639810 687.157560,598.987330 688.174605,598.748780 687.836137,597.577801 690.516944,596.691824 692.190005,603.781637 695.736028,609.508611 700.777007,613.713254 705.510514,615.768501 706.457739,617.686871 712.099734,617.829504 713.172719,622.279801 701.307693,626.101869 705.909396,639.317559 706.431213,644.514430"/>
    <poly id="223813244" type="amenity.parking" color="184,184,179" fill="1" layer="-1.00" shape="1829.730401,933.432098 1827.313119,931.299874 1762.600197,1001.696125 1750.671037,1010.467289 1733.722467,1013.775686 1726.447769,1020.325165 1716.152722,1024.039714 1699.902834,1027.464716 1683.406234,1033.295794 1674.048309,1044.160790 1668.383600,1053.834964 1665.326756,1063.188533 1663.056539,1082.046616 1663.155815,1092.993605 1665.075905,1101.139960 1664.458981,1109.464986 1661.157586,1114.155633 1665.566031,1117.824322 1670.426425,1122.167574 1673.701631,1118.143845 1682.142309,1116.048511 1691.327551,1112.345981 1698.074286,1106.499329 1721.496094,1083.262186 1822.593068,975.955512 1826.779435,970.887833 1829.354111,964.587915 1829.730401,933.432098"/>
    <poly id="223863064" type="natural.water" color="181,209,209" fill="1" layer="-4.00" shape="1540.452386,944.001356 1528.880946,907.645480 1492.611173,919.113369 1504.182816,955.469162 1540.452386,944.001356"/>
    <poly id="227387754" type="amenity.parking" color="184,184,179" fill="1" layer="-1.00" shape="1722.002446,1403.804734 1728.952251,1402.007163 1730.237779,1407.479127 1757.169001,1400.611063 1755.990441,1395.922559 1761.057903,1394.618813 1746.881275,1335.895196 1741.528871,1337.254557 1740.300610,1331.985223 1725.126032,1335.185164 1686.635072,1324.455503 1678.932644,1350.948516 1684.106542,1352.287244 1683.294387,1354.693327 1714.182425,1363.910860 1713.389797,1367.664721 1722.002446,1403.804734"/>
    <poly id="244039487" type="building.yes" color="255,230,230" fill="1" layer="-1.00" shape="1036.918316,1164.773899 1038.047170,1153.162633 1031.446429,1152.525661 1030.317589,1164.136928 1036.918316,1164.773899"/>
    <poly id="244039487#1" type="man_made.reservoir_covered" color="255,230,230" fill="1" layer="-1.00" shape="1036.918316,1164.773899 1038.047170,1153.162633 1031.446429,1152.525661 1030.317589,1164.136928 1036.918316,1164.773899"/>
    <poly id="244039487#2" type="natural.water" color="181,209,209" fill="1" layer="-4.00" shape="1036.918316,1164.773899 1038.047170,1153.162633 1031.446429,1152.525661 1030.317589,1164.136928 1036.918316,1164.773899"/>
    <poly id="25691793" type="natural.water" color="181,209,209" fill="1" layer="-4.00" shape="1287.695953,1190.240787 1487.511891,1209.967649 1516.107800,1211.490658 1463.623620,1050.773307 1454.255335,1052.676733 1450.928980,1040.823905 1390.671323,1061.559643 1319.250755,1060.283926 1312.530171,1072.499716 1289.629835,1176.045010 1284.766193,1184.537516 1287.695953,1190.240787"/>
    <poly id="25691819" type="natural.water" color="181,209,209" fill="1" layer="-4.00" shape="1524.938773,1208.864929 1560.246022,1188.631844 1579.232559,1163.861901 1591.223665,1143.526341 1616.314599,1088.471315 1628.990577,1060.670650 1631.440831,1042.209262 1619.681310,1007.526729 1616.060419,1000.783087 1609.956679,997.637899 1600.096665,996.182079 1584.103417,997.502359 1495.597621,1025.533022 1471.506073,1039.994806 1524.938773,1208.864929"/>
    <poly id="25691821" type="natural.water" color="181,209,209" fill="1" layer="-4.00" shape="1374.428394,1040.049514 1473.555277,1008.092079 1459.915648,966.055665 1360.795364,998.013650 1374.428394,1040.049514"/>
    <poly id="25691828" type="natural.water" color="181,209,209" fill="1" layer="-4.00" shape="1357.951056,988.651170 1456.879099,957.531637 1455.806625,954.194397 1450.126624,936.549494 1442.120289,911.677529 1343.702665,942.149454 1347.128923,954.050641 1371.225435,955.173718 1374.048466,964.524238 1353.940903,976.482164 1357.951056,988.651170"/>
    <poly id="25691831" type="natural.water" color="181,209,209" fill="1" layer="-4.00" shape="1514.632277,1002.312125 1502.559141,964.700928 1598.444913,934.110165 1609.548709,968.700088 1607.522579,969.344141 1608.484127,972.365357 1514.632277,1002.312125"/>
    <poly id="288994597" type="landuse.grass" color="194,194,130" fill="1" layer="-3.00" shape="949.281154,504.707897 946.594089,499.637766 953.204562,496.156038 956.249618,501.896984 956.335244,508.045326 949.786451,511.618521 949.281154,504.707897"/>
    <poly id="294357960" type="building.yes" color="255,230,230" fill="1" layer="-1.00" shape="1124.887740,446.637518 1116.241200,420.650169 1090.868135,428.183806 1093.460016,436.422977 1087.993864,438.079140 1080.961008,440.308496 1082.317648,444.914708 1073.846109,447.410572 1076.691595,456.394392 1092.344659,451.574815 1097.079940,450.068151 1099.744300,458.677529 1106.752975,456.324796 1111.609304,454.689298 1121.275196,483.711143 1123.846930,486.539271 1127.672338,487.345903 1130.891026,486.058176 1132.943810,483.255326 1133.101249,479.420865 1122.927949,447.250960 1124.887740,446.637518"/>
    <poly id="294357960#1" type="historic.building" color="128,255,128" fill="1" layer="-1.00" shape="1124.887740,446.637518 1116.241200,420.650169 1090.868135,428.183806 1093.460016,436.422977 1087.993864,438.079140 1080.961008,440.308496 1082.317648,444.914708 1073.846109,447.410572 1076.691595,456.394392 1092.344659,451.574815 1097.079940,450.068151 1099.744300,458.677529 1106.752975,456.324796 1111.609304,454.689298 1121.275196,483.711143 1123.846930,486.539271 1127.672338,487.345903 1130.891026,486.058176 1132.943810,483.255326 1133.101249,479.420865 1122.927949,447.250960 1124.887740,446.637518"/>
    <poly id="294357960#2" type="man_made.works" color="255,230,230" fill="1" layer="-1.00" shape="1124.887740,446.637518 1116.241200,420.650169 1090.868135,428.183806 1093.460016,436.422977 1087.993864,438.079140 1080.961008,440.308496 1082.317648,444.914708 1073.846109,447.410572 1076.691595,456.394392 1092.344659,451.574815 1097.079940,450.068151 1099.744300,458.677529 1106.752975,456.324796 1111.609304,454.689298 1121.275196,483.711143 1123.846930,486.539271 1127.672338,487.345903 1130.891026,486.058176 1132.943810,483.255326 1133.101249,479.420865 1122.927949,447.250960 1124.887740,446.637518"/>
    <poly id="294357961" type="amenity.library" color="237,199,199" fill="1" layer="-1.00" shape="1046.000627,508.838961 1058.849530,504.900280 1060.773275,511.131735 1089.459721,502.102431 1087.433675,495.521858 1092.628043,491.918043 1094.347709,493.733150 1096.171103,494.750798 1098.038139,495.024295 1099.750482,494.434552 1101.031152,493.204497 1101.623854,491.769385 1102.146715,489.340767 1102.420293,486.612947 1102.302859,483.502451 1101.742545,480.408007 1100.715506,476.827731 1099.158444,473.081979 1097.371863,469.828190 1095.107786,466.733819 1092.903264,464.710477 1090.934491,460.369728 1089.679906,462.970073 1088.149674,463.722803 1086.903180,464.820612 1086.283539,466.388259 1085.686005,468.502251 1085.689276,472.676971 1086.670394,476.689603 1082.305993,480.760082 1057.972088,404.174797 1056.923560,400.771806 1032.682125,408.105112 1033.537864,410.877144 1046.025869,449.493974 1029.082261,454.686183 1032.369264,465.357096 1042.855551,462.138530 1046.432154,473.744768 1035.887539,476.972175 1039.013558,487.124709 1049.705109,483.847401 1053.139396,495.013917 1042.719618,498.201667 1046.000627,508.838961"/>
    <poly id="294357961#1" type="building.yes" color="255,230,230" fill="1" layer="-1.00" shape="1046.000627,508.838961 1058.849530,504.900280 1060.773275,511.131735 1089.459721,502.102431 1087.433675,495.521858 1092.628043,491.918043 1094.347709,493.733150 1096.171103,494.750798 1098.038139,495.024295 1099.750482,494.434552 1101.031152,493.204497 1101.623854,491.769385 1102.146715,489.340767 1102.420293,486.612947 1102.302859,483.502451 1101.742545,480.408007 1100.715506,476.827731 1099.158444,473.081979 1097.371863,469.828190 1095.107786,466.733819 1092.903264,464.710477 1090.934491,460.369728 1089.679906,462.970073 1088.149674,463.722803 1086.903180,464.820612 1086.283539,466.388259 1085.686005,468.502251 1085.689276,472.676971 1086.670394,476.689603 1082.305993,480.760082 1057.972088,404.174797 1056.923560,400.771806 1032.682125,408.105112 1033.537864,410.877144 1046.025869,449.493974 1029.082261,454.686183 1032.369264,465.357096 1042.855551,462.138530 1046.432154,473.744768 1035.887539,476.972175 1039.013558,487.124709 1049.705109,483.847401 1053.139396,495.013917 1042.719618,498.201667 1046.000627,508.838961"/>
    <poly id="296950327" type="building.industrial" color="255,230,230" fill="1" layer="-1.00" shape="1463.671740,699.762415 1428.605500,590.136366 1453.339127,582.267524 1488.404514,691.904859 1463.671740,699.762415"/>
    <poly id="314738680" type="building.yes" color="255,230,230" fill="1" layer="-1.00" shape="1982.811005,871.320410 1992.286040,880.910672 2007.855385,864.946932 1998.747757,855.415624 1997.756240,856.478732 1996.629860,856.178385 1994.306816,858.101978 1994.234877,859.746740 1986.861726,867.126962 1984.928436,867.251310 1983.019740,869.146673 1982.811005,871.320410"/>
    <poly id="314738681" type="building.yes" color="255,230,230" fill="1" layer="-1.00" shape="1985.444075,903.540882 2028.216046,961.052182 2070.440091,929.839417 2062.721681,919.460922 2045.421292,932.250470 2010.367826,885.117442 1985.444075,903.540882"/>
    <poly id="339703922" type="building.apartments" color="255,230,230" fill="1" layer="-1.00" shape="853.302645,686.426502 867.576927,728.686226 868.967692,732.792765 887.648901,726.521492 885.005052,718.681153 910.166017,710.225524 897.151901,671.710877 862.058925,683.496178 853.302645,686.426502"/>
    <poly id="339708927" type="landuse.grass" color="194,194,130" fill="1" layer="-3.00" shape="1304.001050,837.029141 1291.551066,841.160963 1290.052410,836.671565 1278.417669,840.534803 1279.916769,845.013082 1203.815276,870.250764 1202.316560,865.761391 1190.336958,869.733750 1191.835682,874.223119 1177.637888,878.932375 1176.054637,874.194789 1171.111347,875.837932 1141.384400,784.891614 1205.671159,763.687471 1249.315329,749.411900 1274.622309,741.130626 1279.214381,739.573990 1281.008179,737.829743 1281.670988,735.161713 1281.126630,732.958448 1247.515433,744.098056 1187.880633,763.869825 1186.020977,764.520558 1131.966021,782.329616 1137.254950,798.144224 1107.264592,807.923636 1134.680464,892.734389 1145.631933,924.255824 1150.815002,932.774681 1155.518948,936.499031 1161.558007,939.451906 1164.793329,937.363343 1167.442471,934.138588 1169.141279,930.375648 1169.561371,925.204470 1164.077380,908.268943 1165.919837,896.028842 1171.084880,889.095425 1183.135824,880.895561 1198.821303,875.777059 1242.444683,860.899535 1305.150556,840.068791 1309.123130,836.005398 1310.374999,831.256463 1310.166422,825.481762 1286.010010,748.568079 1283.793478,746.855879 1280.689345,746.333438 1276.700425,747.668805 1277.294047,749.540032 1282.608830,747.855876 1308.296213,826.031849 1303.839554,827.649426 1305.138915,831.674592 1302.331996,832.633249 1304.001050,837.029141"/>
    <poly id="339708928" type="amenity.parking" color="184,184,179" fill="1" layer="-1.00" shape="1171.111347,875.837932 1141.384400,784.891614 1205.671159,763.687471 1249.315329,749.411900 1274.622309,741.130626 1276.700425,747.668805 1277.294047,749.540032 1282.608830,747.855876 1308.296213,826.031849 1303.839554,827.649426 1305.138915,831.674592 1302.331996,832.633249 1304.001050,837.029141 1291.551066,841.160963 1290.052410,836.671565 1278.417669,840.534803 1279.916769,845.013082 1203.815276,870.250764 1202.316560,865.761391 1190.336958,869.733750 1191.835682,874.223119 1177.637888,878.932375 1176.054637,874.194789 1171.111347,875.837932"/>
    <poly id="371436524" type="natural.water" color="181,209,209" fill="1" layer="-4.00" shape="1547.250407,881.437362 1547.729850,883.259615 1547.598214,885.135810 1546.863353,886.865874 1545.611870,888.275088 1543.973362,889.201555 1542.081608,889.561467 1540.186203,889.275562 1538.488513,888.385140 1537.165570,886.997339 1536.386297,885.241245 1536.214353,883.342003 1536.686189,881.479160 1537.734737,879.883862 1539.252554,878.707745 1541.044897,878.110152 1542.929932,878.106210 1544.710916,878.721594 1546.209940,879.871397 1547.250407,881.437362"/>
    <poly id="371436525" type="natural.water" color="181,209,209" fill="1" layer="-4.00" shape="1526.465789,895.850630 1489.186411,907.735349 1485.381840,895.874872 1522.668089,884.001525 1526.465789,895.850630"/>
    <poly id="374566530" type="building.university" color="255,230,230" fill="1" layer="-1.00" shape="1085.952831,659.965104 1102.818330,654.347024 1094.729629,630.229484 1117.670455,622.578395 1115.093154,614.896385 1134.324091,608.491590 1129.149972,593.071129 1070.523490,612.616576 1054.730428,617.875992 1071.869777,668.953940 1087.244455,663.822916 1085.952831,659.965104"/>
    <poly id="374566531" type="building.university" color="255,230,230" fill="1" layer="-1.00" shape="1132.423117,621.486397 1129.090589,622.535883 1097.845668,632.856275 1107.095231,660.837650 1119.675739,656.710503 1133.989847,652.005620 1141.672097,649.478950 1132.423117,621.486397"/>
    <poly id="374566532" type="building.yes" color="255,230,230" fill="1" layer="-1.00" shape="1160.677983,611.249439 1149.976359,578.513269 1167.020536,572.969160 1173.629501,570.823506 1184.330571,603.570840 1160.677983,611.249439"/>
    <poly id="374566532#1" type="historic.ruins" color="128,255,128" fill="1" layer="-1.00" shape="1160.677983,611.249439 1149.976359,578.513269 1167.020536,572.969160 1173.629501,570.823506 1184.330571,603.570840 1160.677983,611.249439"/>
    <poly id="374566533" type="amenity.fast_food" color="237,199,199" fill="1" layer="-1.00" shape="1174.630732,651.671817 1167.066401,629.166606 1173.163364,627.134485 1189.882988,621.544343 1197.447242,644.049588 1174.630732,651.671817"/>
    <poly id="374566533#1" type="building.university" color="255,230,230" fill="1" layer="-1.00" shape="1174.630732,651.671817 1167.066401,629.166606 1173.163364,627.134485 1189.882988,621.544343 1197.447242,644.049588 1174.630732,651.671817"/>
    <poly id="377103323" type="amenity.research_institute" color="237,199,199" fill="1" layer="-1.00" shape="712.506527,838.852986 714.102774,843.824694 716.415462,855.503735 716.477046,871.358402 715.257026,880.127409 711.516297,902.379155 711.187495,910.047521 712.848699,927.634559 734.841897,990.890498 729.746502,995.133013 737.545673,1009.620408 749.585399,1044.690119 750.656778,1049.363016 752.160496,1055.956429 757.663552,1054.635386 759.768774,1052.335421 762.207255,1049.669994 785.589116,1037.726735 817.610351,1008.410146 821.558619,1012.182564 827.860480,1003.044618 829.524434,993.124107 829.110661,984.614035 797.804766,840.685592 794.542397,829.381255 790.529601,816.132830 776.179061,773.035427 720.673022,791.292658 718.748776,796.193521 701.675127,801.782330 700.391450,802.166303 707.474426,823.115700 712.506527,838.852986"/>
    <poly id="377103323#1" type="landuse.commercial" color="209,209,204" fill="1" layer="-3.00" shape="712.506527,838.852986 714.102774,843.824694 716.415462,855.503735 716.477046,871.358402 715.257026,880.127409 711.516297,902.379155 711.187495,910.047521 712.848699,927.634559 734.841897,990.890498 729.746502,995.133013 737.545673,1009.620408 749.585399,1044.690119 750.656778,1049.363016 752.160496,1055.956429 757.663552,1054.635386 759.768774,1052.335421 762.207255,1049.669994 785.589116,1037.726735 817.610351,1008.410146 821.558619,1012.182564 827.860480,1003.044618 829.524434,993.124107 829.110661,984.614035 797.804766,840.685592 794.542397,829.381255 790.529601,816.132830 776.179061,773.035427 720.673022,791.292658 718.748776,796.193521 701.675127,801.782330 700.391450,802.166303 707.474426,823.115700 712.506527,838.852986"/>
    <poly id="377103326" type="amenity.parking" color="184,184,179" fill="1" layer="-1.00" shape="796.918034,1016.083515 782.332818,1030.163056 774.413341,1035.252450 763.278575,1039.514781 749.585399,1044.690119 737.545673,1009.620408 729.746502,995.133013 734.841897,990.890498 736.820152,989.242359 749.538438,993.613693 764.268369,989.180220 789.000484,986.462711 804.707751,986.141961 806.937014,992.162631 806.659855,997.395066 796.918034,1016.083515"/>