<?xml version="1.0" encoding="UTF-8"?>

<!-- generated on 11/08/21 15:43:53 by Eclipse SUMO netconvert Version 1.8.0
<configuration xmlns:xsi="http://www.w3.org/2001/XMLSchema-instance" xsi:noNamespaceSchemaLocation="http://sumo.dlr.de/xsd/netconvertConfiguration.xsd">

    <input>
        <type-files value="C:\Users\faisa\Downloads\sumo-1.8.0\data\typemap\osmNetconvert.typ.xml,C:\Users\faisa\Downloads\sumo-1.8.0\data\typemap\osmNetconvertUrbanDe.typ.xml,C:\Users\faisa\Downloads\sumo-1.8.0\data\typemap\osmNetconvertPedestrians.typ.xml,C:\Users\faisa\Downloads\sumo-1.8.0\data\typemap\osmNetconvertBicycle.typ.xml"/>
        <osm-files value="osm_bbox.osm.xml"/>
    </input>

    <output>
        <output-file value="osm.net.xml"/>
        <output.street-names value="true"/>
        <output.original-names value="true"/>
        <ptstop-output value="osm_stops.add.xml"/>
        <ptline-output value="osm_ptlines.xml"/>
    </output>

    <projection>
        <proj.utm value="true"/>
    </projection>

    <processing>
        <geometry.remove value="true"/>
        <roundabouts.guess value="true"/>
    </processing>

    <tls_building>
        <tls.discard-simple value="true"/>
        <tls.join value="true"/>
        <tls.guess-signals value="true"/>
        <tls.default-type value="actuated"/>
    </tls_building>

    <ramp_guessing>
        <ramps.guess value="true"/>
    </ramp_guessing>

    <junctions>
        <junctions.join value="true"/>
        <junctions.corner-detail value="5"/>
    </junctions>

    <pedestrian>
        <crossings.guess value="true"/>
    </pedestrian>

    <railway>
        <railway.topology.repair value="true"/>
        <railway.topology.repair.stop-turn value="true"/>
    </railway>

    <report>
        <verbose value="true"/>
        <aggregate-warnings value="5"/>
    </report>

</configuration>
-->

<net version="1.6" junctionCornerDetail="5" walkingareas="true" limitTurnSpeed="5.50" xmlns:xsi="http://www.w3.org/2001/XMLSchema-instance" xsi:noNamespaceSchemaLocation="http://sumo.dlr.de/xsd/net_file.xsd">

    <location netOffset="-712340.29,-5487007.71" convBoundary="0.00,0.00,2605.70,1734.80" origBoundary="5.933342,49.497613,5.969145,49.513717" projParameter="+proj=utm +zone=31 +ellps=WGS84 +datum=WGS84 +units=m +no_defs"/>

    <type id="cycleway.lane" allow="bicycle" bikeLaneWidth="1.00"/>
    <type id="cycleway.opposite_lane" allow="bicycle" bikeLaneWidth="1.00"/>
    <type id="cycleway.opposite_track" allow="bicycle" bikeLaneWidth="1.50"/>
    <type id="cycleway.track" allow="bicycle" bikeLaneWidth="1.50"/>
    <type id="cycleway.track|highway.tertiary" priority="10" numLanes="1" speed="13.89" disallow="pedestrian tram rail_urban rail rail_electric rail_fast ship" oneway="0" sidewalkWidth="3.00" bikeLaneWidth="1.50"/>
    <type id="highway.bridleway" priority="1" numLanes="1" speed="2.78" allow="pedestrian" oneway="1" width="2.00"/>
    <type id="highway.bus_guideway" priority="1" numLanes="1" speed="13.89" allow="bus" oneway="1"/>
    <type id="highway.cycleway" priority="1" numLanes="1" speed="8.33" allow="bicycle" oneway="0" width="1.00"/>
    <type id="highway.footway" priority="1" numLanes="1" speed="2.78" allow="pedestrian" oneway="1" width="2.00"/>
    <type id="highway.ford" priority="1" numLanes="1" speed="2.78" allow="army" oneway="0"/>
    <type id="highway.living_street" priority="2" numLanes="1" speed="2.78" disallow="tram rail_urban rail rail_electric rail_fast ship" oneway="0"/>
    <type id="highway.motorway" priority="14" numLanes="2" speed="27.78" allow="private emergency authority army vip passenger hov taxi bus coach delivery truck trailer motorcycle evehicle custom1 custom2" oneway="1"/>
    <type id="highway.motorway_link" priority="9" numLanes="1" speed="16.67" allow="private emergency authority army vip passenger hov taxi bus coach delivery truck trailer motorcycle evehicle custom1 custom2" oneway="1"/>
    <type id="highway.path" priority="1" numLanes="1" speed="2.78" allow="pedestrian bicycle" oneway="0" width="2.00"/>
    <type id="highway.pedestrian" priority="1" numLanes="1" speed="2.78" allow="pedestrian" oneway="1" width="2.00"/>
    <type id="highway.primary" priority="12" numLanes="2" speed="13.89" disallow="pedestrian tram rail_urban rail rail_electric rail_fast ship" oneway="0" sidewalkWidth="3.00"/>
    <type id="highway.primary_link" priority="7" numLanes="1" speed="13.89" disallow="pedestrian tram rail_urban rail rail_electric rail_fast ship" oneway="0" sidewalkWidth="3.00"/>
    <type id="highway.raceway" priority="15" numLanes="2" speed="83.33" allow="vip" oneway="0"/>
    <type id="highway.residential" priority="3" numLanes="1" speed="13.89" disallow="pedestrian tram rail_urban rail rail_electric rail_fast ship" oneway="0" sidewalkWidth="2.00"/>
    <type id="highway.secondary" priority="11" numLanes="1" speed="13.89" disallow="pedestrian tram rail_urban rail rail_electric rail_fast ship" oneway="0" sidewalkWidth="3.00"/>
    <type id="highway.secondary_link" priority="6" numLanes="1" speed="13.89" disallow="pedestrian tram rail_urban rail rail_electric rail_fast ship" oneway="0" sidewalkWidth="3.00"/>
    <type id="highway.service" priority="1" numLanes="1" speed="5.56" allow="pedestrian delivery bicycle" oneway="0"/>
    <type id="highway.stairs" priority="1" numLanes="1" speed="1.39" allow="pedestrian" oneway="1" width="2.00"/>
    <type id="highway.step" priority="1" numLanes="1" speed="1.39" allow="pedestrian" oneway="1" width="2.00"/>
    <type id="highway.steps" priority="1" numLanes="1" speed="1.39" allow="pedestrian" oneway="1" width="2.00"/>
    <type id="highway.tertiary" priority="10" numLanes="1" speed="13.89" disallow="pedestrian tram rail_urban rail rail_electric rail_fast ship" oneway="0" sidewalkWidth="3.00"/>
    <type id="highway.tertiary_link" priority="5" numLanes="1" speed="13.89" disallow="pedestrian tram rail_urban rail rail_electric rail_fast ship" oneway="0" sidewalkWidth="2.00"/>
    <type id="highway.track" priority="1" numLanes="1" speed="5.56" allow="pedestrian motorcycle moped bicycle" oneway="0"/>
    <type id="highway.trunk" priority="13" numLanes="2" speed="13.89" disallow="pedestrian bicycle tram rail_urban rail rail_electric rail_fast ship" oneway="0"/>
    <type id="highway.trunk_link" priority="8" numLanes="1" speed="13.89" disallow="pedestrian bicycle tram rail_urban rail rail_electric rail_fast ship" oneway="0"/>
    <type id="highway.unclassified" priority="4" numLanes="1" speed="13.89" disallow="pedestrian tram rail_urban rail rail_electric rail_fast ship" oneway="0" sidewalkWidth="2.00"/>
    <type id="highway.unsurfaced" priority="1" numLanes="1" speed="8.33" disallow="tram rail_urban rail rail_electric rail_fast ship" oneway="0"/>
    <type id="railway.highspeed" priority="21" numLanes="1" speed="69.44" allow="rail_fast" oneway="1"/>
    <type id="railway.light_rail" priority="19" numLanes="1" speed="27.78" allow="rail_urban" oneway="1"/>
    <type id="railway.preserved" priority="16" numLanes="1" speed="27.78" allow="rail" oneway="1"/>
    <type id="railway.rail" priority="20" numLanes="1" speed="44.44" allow="rail" oneway="1"/>
    <type id="railway.subway" priority="18" numLanes="1" speed="27.78" allow="rail_urban" oneway="1"/>
    <type id="railway.tram" priority="17" numLanes="1" speed="13.89" allow="tram" oneway="1"/>

    <edge id=":1082542806_0" function="internal">
        <lane id=":1082542806_0_0" index="0" allow="pedestrian delivery bicycle" speed="4.66" length="6.10" shape="1631.46,943.26 1629.84,942.31 1628.67,942.30 1627.94,943.22 1627.67,945.08"/>
    </edge>
    <edge id=":1082542806_1" function="internal">
        <lane id=":1082542806_1_0" index="0" allow="pedestrian delivery bicycle" speed="5.56" length="10.84" shape="1631.46,943.26 1628.96,941.41 1627.08,940.03 1625.35,938.50 1623.31,936.18"/>
    </edge>
    <edge id=":1082542806_2" function="internal">
        <lane id=":1082542806_2_0" index="0" allow="pedestrian delivery bicycle" speed="3.65" length="4.67" shape="1631.46,943.26 1631.00,941.89 1631.16,941.01 1631.97,940.62 1633.41,940.71"/>
    </edge>
    <edge id=":1082542806_3" function="internal">
        <lane id=":1082542806_3_0" index="0" allow="pedestrian delivery bicycle" speed="5.56" length="10.09" shape="1625.79,934.16 1627.75,936.40 1629.29,937.76 1630.98,938.95 1633.41,940.71"/>
    </edge>
    <edge id=":1082542806_4" function="internal">
        <lane id=":1082542806_4_0" index="0" allow="pedestrian delivery bicycle" speed="5.56" length="11.45" shape="1625.79,934.16 1627.43,936.80 1627.95,939.20 1627.86,941.81 1627.67,945.08"/>
    </edge>
    <edge id=":1082542806_5" function="internal">
        <lane id=":1082542806_5_0" index="0" allow="pedestrian delivery bicycle" speed="3.65" length="4.67" shape="1625.79,934.16 1625.93,935.60 1625.56,936.41 1624.69,936.61 1623.31,936.18"/>
    </edge>
    <edge id=":1082542806_6" function="internal">
        <lane id=":1082542806_6_0" index="0" allow="pedestrian delivery bicycle" speed="5.56" length="9.28" shape="1624.47,945.01 1624.72,942.24 1624.98,940.22 1624.69,938.39 1623.31,936.18"/>
    </edge>
    <edge id=":1082542806_7" function="internal">
        <lane id=":1082542806_7_0" index="0" allow="pedestrian delivery bicycle" speed="5.56" length="14.37" shape="1624.47,945.01 1625.12,940.64 1626.82,938.46 1629.58,938.49 1633.41,940.71"/>
    </edge>
    <edge id=":1082542806_8" function="internal">
        <lane id=":1082542806_8_0" index="0" allow="pedestrian delivery bicycle" speed="3.65" length="4.67" shape="1624.47,945.01 1625.29,943.83 1626.10,943.45 1626.89,943.86 1627.67,945.08"/>
    </edge>
    <edge id=":1082542806_w0" function="walkingarea">
        <lane id=":1082542806_w0_0" index="0" allow="pedestrian" speed="1.00" length="8.11" width="3.20" shape="1630.49,944.53 1632.44,941.98 1632.43,941.98 1634.38,939.44 1627.04,933.15 1624.55,935.17 1624.55,935.17 1622.07,937.19 1622.87,944.98 1626.07,945.05 1626.07,945.05 1629.27,945.12 1630.13,944.29 1629.83,944.19 1629.59,944.22 1629.42,944.38 1629.31,944.68"/>
    </edge>
    <edge id=":1082542818_0" function="internal">
        <lane id=":1082542818_0_0" index="0" allow="pedestrian delivery bicycle" speed="3.65" length="4.67" shape="2254.96,326.78 2256.34,327.20 2256.95,327.85 2256.80,328.73 2255.87,329.84"/>
    </edge>
    <edge id=":1082542968_0" function="internal">
        <lane id=":1082542968_0_0" index="0" allow="pedestrian delivery bicycle" speed="5.56" length="12.60" shape="1345.13,477.62 1340.79,465.79"/>
    </edge>
    <edge id=":1082542968_1" function="internal">
        <lane id=":1082542968_1_0" index="0" allow="pedestrian delivery bicycle" speed="5.56" length="13.57" shape="1345.13,477.62 1344.67,474.24 1345.27,471.10 1346.47,467.97 1347.82,464.63"/>
    </edge>
    <edge id=":1082542968_2" function="internal">
        <lane id=":1082542968_2_0" index="0" allow="pedestrian delivery bicycle" speed="3.65" length="4.67" shape="1345.13,477.62 1345.53,476.23 1346.17,475.61 1347.05,475.75 1348.18,476.65"/>
    </edge>
    <edge id=":1082542968_3" function="internal">
        <lane id=":1082542968_3_0" index="0" allow="pedestrian delivery bicycle" speed="5.56" length="11.59" shape="1350.83,465.72 1349.48,468.74 1348.30,471.16 1347.71,473.59 1348.18,476.65"/>
    </edge>
    <edge id=":1082542968_4" function="internal">
        <lane id=":1082542968_4_0" index="0" allow="pedestrian delivery bicycle" speed="5.56" length="17.35" shape="1350.83,465.72 1348.35,470.80 1345.85,472.50 1343.33,470.83 1340.79,465.79"/>
    </edge>
    <edge id=":1082542968_5" function="internal">
        <lane id=":1082542968_5_0" index="0" allow="pedestrian delivery bicycle" speed="3.65" length="4.67" shape="1350.83,465.72 1349.67,466.58 1348.78,466.68 1348.17,466.03 1347.82,464.63"/>
    </edge>
    <edge id=":1082542968_6" function="internal">
        <lane id=":1082542968_6_0" index="0" allow="pedestrian delivery bicycle" speed="4.70" length="6.99" shape="1343.78,464.65 1344.80,466.69 1345.82,467.36 1346.83,466.67 1347.82,464.63"/>
    </edge>
    <edge id=":1082542968_7" function="internal">
        <lane id=":1082542968_7_0" index="0" allow="pedestrian delivery bicycle" speed="5.56" length="12.78" shape="1343.78,464.65 1348.18,476.65"/>
    </edge>
    <edge id=":1082542968_8" function="internal">
        <lane id=":1082542968_8_0" index="0" allow="pedestrian delivery bicycle" speed="3.65" length="4.67" shape="1343.78,464.65 1343.46,466.06 1342.85,466.72 1341.96,466.63 1340.79,465.79"/>
    </edge>
    <edge id=":1082542968_w0" function="walkingarea">
        <lane id=":1082542968_w0_0" index="0" allow="pedestrian" speed="1.00" length="9.28" width="3.20" shape="1343.60,478.10 1346.65,477.13 1346.65,477.13 1349.70,476.17 1352.33,466.27 1349.33,465.17 1349.33,465.17 1346.32,464.08 1345.28,464.09 1342.28,465.22 1342.28,465.22 1339.29,466.36"/>
    </edge>
    <edge id=":1082543136_0" function="internal">
        <lane id=":1082543136_0_0" index="0" allow="delivery bicycle" speed="9.72" length="0.92" shape="1728.95,972.40 1728.92,972.13 1728.89,971.95 1728.84,971.77 1728.76,971.51"/>
    </edge>
    <edge id=":1082543136_1" function="internal">
        <lane id=":1082543136_1_0" index="0" disallow="pedestrian tram rail_urban rail rail_electric rail_fast ship" speed="3.65" length="2.34" shape="1728.95,972.40 1729.60,971.11 1730.35,970.62"/>
    </edge>
    <edge id=":1082543136_3" function="internal">
        <lane id=":1082543136_3_0" index="0" disallow="pedestrian tram rail_urban rail rail_electric rail_fast ship" speed="3.65" length="2.34" shape="1730.35,970.62 1731.19,970.92 1732.13,972.01"/>
    </edge>
    <edge id=":1082543136_2" function="internal">
        <lane id=":1082543136_2_0" index="0" allow="delivery bicycle" speed="9.72" length="1.52" shape="1731.80,970.53 1731.94,970.96 1732.02,971.26 1732.07,971.56 1732.13,972.01"/>
    </edge>
    <edge id=":1082543136_w0" function="walkingarea">
        <lane id=":1082543136_w0_0" index="0" allow="pedestrian" speed="1.00" length="4.87" width="3.20" shape="1733.72,971.81 1735.70,971.57 1733.33,970.04 1730.28,971.02 1730.28,971.02 1727.23,972.00 1725.38,972.84 1727.37,972.60"/>
    </edge>
    <edge id=":1082543219_0" function="internal">
        <lane id=":1082543219_0_0" index="0" allow="pedestrian delivery bicycle" speed="5.56" length="7.94" shape="1592.62,868.00 1591.39,866.00 1590.46,864.66 1589.35,863.49 1587.57,861.96"/>
    </edge>
    <edge id=":1082543219_1" function="internal">
        <lane id=":1082543219_1_0" index="0" allow="pedestrian delivery bicycle" speed="5.56" length="10.34" shape="1592.62,868.00 1591.48,865.39 1591.47,863.07 1592.58,861.03 1594.83,859.28"/>
    </edge>
    <edge id=":1082543219_2" function="internal">
        <lane id=":1082543219_2_0" index="0" allow="pedestrian delivery bicycle" speed="3.65" length="4.67" shape="1592.62,868.00 1592.67,866.56 1593.14,865.80 1594.03,865.72 1595.34,866.31"/>
    </edge>
    <edge id=":1082543219_3" function="internal">
        <lane id=":1082543219_3_0" index="0" allow="pedestrian delivery bicycle" speed="5.00" length="5.04" shape="1596.42,862.06 1595.32,862.92 1594.78,863.91 1594.78,865.04 1595.34,866.31"/>
    </edge>
    <edge id=":1082543219_4" function="internal">
        <lane id=":1082543219_4_0" index="0" allow="pedestrian delivery bicycle" speed="5.56" length="9.46" shape="1596.42,862.06 1593.94,863.16 1591.64,863.51 1589.51,863.11 1587.57,861.96"/>
    </edge>
    <edge id=":1082543219_5" function="internal">
        <lane id=":1082543219_5_0" index="0" allow="pedestrian delivery bicycle" speed="3.65" length="4.67" shape="1596.42,862.06 1594.98,861.96 1594.24,861.47 1594.19,860.57 1594.83,859.28"/>
    </edge>
    <edge id=":1082543219_6" function="internal">
        <lane id=":1082543219_6_0" index="0" allow="pedestrian delivery bicycle" speed="5.56" length="5.59" shape="1589.59,859.48 1590.67,860.09 1591.91,860.26 1593.29,859.99 1594.83,859.28"/>
    </edge>
    <edge id=":1082543219_7" function="internal">
        <lane id=":1082543219_7_0" index="0" allow="pedestrian delivery bicycle" speed="5.56" length="9.00" shape="1589.59,859.48 1591.62,861.21 1592.88,862.54 1593.94,864.04 1595.34,866.31"/>
    </edge>
    <edge id=":1082543219_8" function="internal">
        <lane id=":1082543219_8_0" index="0" allow="pedestrian delivery bicycle" speed="3.65" length="4.67" shape="1589.59,859.48 1590.01,860.86 1589.82,861.73 1589.00,862.10 1587.57,861.96"/>
    </edge>
    <edge id=":1082543219_w0" function="walkingarea">
        <lane id=":1082543219_w0_0" index="0" allow="pedestrian" speed="1.00" length="6.73" width="3.20" shape="1591.26,868.84 1593.98,867.16 1593.98,867.16 1596.70,865.47 1597.21,863.45 1595.62,860.67 1595.62,860.67 1594.04,857.90 1590.60,858.24 1588.58,860.72 1588.58,860.72 1586.55,863.20 1590.44,867.50 1589.81,866.51 1589.25,865.72 1588.61,865.00 1587.76,864.21"/>
    </edge>
    <edge id=":1082543979_0" function="internal">
        <lane id=":1082543979_0_0" index="0" allow="bicycle" speed="4.91" length="5.44" shape="704.10,888.58 703.19,888.74 702.46,889.50 701.90,890.86 701.51,892.82"/>
    </edge>
    <edge id=":1082543979_1" function="internal">
        <lane id=":1082543979_1_0" index="0" allow="bicycle" speed="6.95" length="9.40" shape="704.10,888.58 701.36,888.34 699.47,888.57 697.63,889.24 695.07,890.35"/>
    </edge>
    <edge id=":1082543979_2" function="internal">
        <lane id=":1082543979_2_0" index="0" allow="bicycle" speed="6.61" length="0.20" shape="704.10,888.58 703.90,888.54"/>
    </edge>
    <edge id=":1082543979_3" function="internal">
        <lane id=":1082543979_3_0" index="0" allow="bicycle" speed="2.04" length="0.73" width="1.00" shape="704.10,888.58 703.76,888.28 703.67,888.02"/>
    </edge>
    <edge id=":1082543979_16" function="internal">
        <lane id=":1082543979_16_0" index="0" allow="bicycle" speed="6.61" length="9.99" shape="703.90,888.54 700.93,887.81 698.78,886.53 697.65,884.74 697.53,882.44"/>
    </edge>
    <edge id=":1082543979_17" function="internal">
        <lane id=":1082543979_17_0" index="0" allow="bicycle" speed="2.04" length="0.73" width="1.00" shape="703.67,888.02 703.83,887.79 704.24,887.59"/>
    </edge>
    <edge id=":1082543979_4" function="internal">
        <lane id=":1082543979_4_0" index="0" allow="bicycle" speed="5.04" length="5.05" width="1.00" shape="702.88,883.24 702.72,885.04 702.90,886.36 703.40,887.22 704.24,887.59"/>
    </edge>
    <edge id=":1082543979_5" function="internal">
        <lane id=":1082543979_5_0" index="0" allow="pedestrian delivery bicycle" speed="5.56" length="9.71" shape="701.79,883.07 700.42,892.68"/>
    </edge>
    <edge id=":1082543979_6" function="internal">
        <lane id=":1082543979_6_0" index="0" allow="pedestrian delivery bicycle" speed="5.56" length="9.87" shape="701.79,883.07 701.13,884.79 699.73,886.41 697.56,887.92 694.65,889.33"/>
    </edge>
    <edge id=":1082543979_7" function="internal">
        <lane id=":1082543979_7_0" index="0" allow="pedestrian delivery bicycle" speed="3.65" length="4.67" shape="701.79,883.07 700.83,884.14 699.98,884.42 699.24,883.91 698.62,882.61"/>
    </edge>
    <edge id=":1082543979_8" function="internal">
        <lane id=":1082543979_8_0" index="0" allow="pedestrian delivery bicycle" speed="5.56" length="4.96" shape="695.00,885.73 696.48,885.02 697.58,884.26 698.29,883.46 698.62,882.61"/>
    </edge>
    <edge id=":1082543979_9" function="internal">
        <lane id=":1082543979_9_0" index="0" allow="bicycle" speed="6.95" length="10.51" width="1.00" shape="694.58,884.71 697.34,884.26 699.28,885.18 701.29,886.58 704.24,887.59"/>
    </edge>
    <edge id=":1082543979_10" function="internal">
        <lane id=":1082543979_10_0" index="0" allow="pedestrian delivery bicycle" speed="5.56" length="1.24" shape="695.00,885.73 696.21,885.47"/>
    </edge>
    <edge id=":1082543979_11" function="internal">
        <lane id=":1082543979_11_0" index="0" allow="pedestrian delivery bicycle" speed="3.81" length="3.02" shape="695.00,885.73 696.26,886.76 696.62,887.70 696.42,888.02"/>
    </edge>
    <edge id=":1082543979_18" function="internal">
        <lane id=":1082543979_18_0" index="0" allow="pedestrian delivery bicycle" speed="5.56" length="10.50" shape="696.21,885.47 697.85,885.13 699.71,886.09 700.57,888.60 700.42,892.68"/>
    </edge>
    <edge id=":1082543979_19" function="internal">
        <lane id=":1082543979_19_0" index="0" allow="pedestrian delivery bicycle" speed="3.81" length="2.27" shape="696.42,888.02 696.09,888.56 694.65,889.33"/>
    </edge>
    <edge id=":1082543979_12" function="internal">
        <lane id=":1082543979_12_0" index="0" allow="pedestrian delivery bicycle" speed="4.50" length="5.27" shape="697.25,892.26 697.30,890.49 696.88,889.41 696.00,889.03 694.65,889.33"/>
    </edge>
    <edge id=":1082543979_13" function="internal">
        <lane id=":1082543979_13_0" index="0" allow="pedestrian delivery bicycle" speed="5.56" length="9.75" shape="697.25,892.26 698.62,882.61"/>
    </edge>
    <edge id=":1082543979_14" function="internal">
        <lane id=":1082543979_14_0" index="0" allow="bicycle" speed="6.38" length="8.69" width="1.00" shape="698.34,892.40 698.99,890.03 700.18,888.43 701.93,887.62 704.24,887.59"/>
    </edge>
    <edge id=":1082543979_15" function="internal">
        <lane id=":1082543979_15_0" index="0" allow="pedestrian delivery bicycle" speed="3.65" length="4.67" shape="697.25,892.26 698.20,891.18 699.05,890.88 699.79,891.39 700.42,892.68"/>
    </edge>
    <edge id=":1082543979_w0" function="walkingarea">
        <lane id=":1082543979_w0_0" index="0" allow="pedestrian" speed="1.00" length="7.04" width="3.20" shape="703.37,883.32 700.21,882.82 700.20,882.86 697.04,882.36 694.39,884.25 695.61,887.21 694.04,887.85 695.26,890.81 695.66,892.05 698.84,892.47 698.84,892.47 702.01,892.89"/>
    </edge>
    <edge id=":1082544064_0" function="internal">
        <lane id=":1082544064_0_0" index="0" allow="pedestrian delivery bicycle" speed="4.71" length="7.03" shape="1371.08,421.23 1370.06,419.17 1369.05,418.49 1368.05,419.18 1367.04,421.24"/>
    </edge>
    <edge id=":1082544064_1" function="internal">
        <lane id=":1082544064_1_0" index="0" allow="pedestrian delivery bicycle" speed="5.56" length="12.83" shape="1371.08,421.23 1369.82,418.04 1368.70,415.24 1367.79,412.39 1367.17,409.05"/>
    </edge>
    <edge id=":1082544064_2" function="internal">
        <lane id=":1082544064_2_0" index="0" allow="pedestrian delivery bicycle" speed="3.65" length="4.67" shape="1371.08,421.23 1371.41,419.82 1372.02,419.17 1372.91,419.27 1374.08,420.11"/>
    </edge>
    <edge id=":1082544064_3" function="internal">
        <lane id=":1082544064_3_0" index="0" allow="pedestrian delivery bicycle" speed="5.56" length="12.09" shape="1370.35,408.66 1370.94,411.89 1371.79,414.49 1372.85,417.05 1374.08,420.11"/>
    </edge>
    <edge id=":1082544064_4" function="internal">
        <lane id=":1082544064_4_0" index="0" allow="pedestrian delivery bicycle" speed="5.56" length="13.16" shape="1370.35,408.66 1370.33,412.06 1369.56,415.05 1368.36,417.99 1367.04,421.24"/>
    </edge>
    <edge id=":1082544064_5" function="internal">
        <lane id=":1082544064_5_0" index="0" allow="pedestrian delivery bicycle" speed="3.65" length="4.67" shape="1370.35,408.66 1369.70,409.95 1368.95,410.44 1368.11,410.14 1367.17,409.05"/>
    </edge>
    <edge id=":1082544064_6" function="internal">
        <lane id=":1082544064_6_0" index="0" allow="pedestrian delivery bicycle" speed="5.56" length="11.71" shape="1364.04,420.14 1365.33,417.13 1366.47,414.70 1367.18,412.22 1367.17,409.05"/>
    </edge>
    <edge id=":1082544064_7" function="internal">
        <lane id=":1082544064_7_0" index="0" allow="pedestrian delivery bicycle" speed="5.56" length="17.48" shape="1364.04,420.14 1366.53,415.01 1369.04,413.30 1371.55,415.00 1374.08,420.11"/>
    </edge>
    <edge id=":1082544064_8" function="internal">
        <lane id=":1082544064_8_0" index="0" allow="pedestrian delivery bicycle" speed="3.65" length="4.67" shape="1364.04,420.14 1365.20,419.29 1366.09,419.19 1366.70,419.84 1367.04,421.24"/>
    </edge>
    <edge id=":1082544064_w0" function="walkingarea">
        <lane id=":1082544064_w0_0" index="0" allow="pedestrian" speed="1.00" length="9.22" width="3.20" shape="1369.58,421.78 1372.58,420.67 1372.58,420.67 1375.58,419.56 1371.94,408.47 1368.76,408.86 1368.76,408.86 1365.58,409.24 1362.53,419.60 1365.54,420.69 1365.54,420.69 1368.55,421.79 1369.41,421.39 1369.23,421.16 1369.06,421.08 1368.89,421.16 1368.72,421.40"/>
    </edge>
    <edge id=":1082545144_0" function="internal">
        <lane id=":1082545144_0_0" index="0" allow="pedestrian delivery bicycle" speed="3.65" length="4.67" shape="2296.64,354.62 2297.36,353.37 2298.14,352.92 2298.96,353.27 2299.83,354.42"/>
    </edge>
    <edge id=":1082545414_0" function="internal">
        <lane id=":1082545414_0_0" index="0" allow="pedestrian delivery bicycle" speed="5.56" length="14.79" shape="1674.92,950.66 1671.51,952.10 1668.35,953.95 1665.28,956.01 1662.16,958.06"/>
    </edge>
    <edge id=":1082545414_1" function="internal">
        <lane id=":1082545414_1_0" index="0" allow="pedestrian delivery bicycle" speed="5.56" length="15.71" shape="1674.92,950.66 1671.17,951.49 1667.20,951.79 1663.19,951.72 1659.32,951.45"/>
    </edge>
    <edge id=":1082545414_2" function="internal">
        <lane id=":1082545414_2_0" index="0" allow="pedestrian delivery bicycle" speed="3.65" length="4.67" shape="1674.92,950.66 1673.53,950.27 1672.90,949.63 1673.04,948.75 1673.93,947.62"/>
    </edge>
    <edge id=":1082545414_3" function="internal">
        <lane id=":1082545414_3_0" index="0" allow="pedestrian delivery bicycle" speed="5.56" length="14.94" shape="1659.10,948.22 1662.85,948.52 1666.60,948.65 1670.31,948.42 1673.93,947.62"/>
    </edge>
    <edge id=":1082545414_4" function="internal">
        <lane id=":1082545414_4_0" index="0" allow="pedestrian delivery bicycle" speed="5.56" length="19.17" shape="1659.10,948.22 1665.54,949.37 1668.20,951.40 1667.07,954.30 1662.16,958.06"/>
    </edge>
    <edge id=":1082545414_5" function="internal">
        <lane id=":1082545414_5_0" index="0" allow="pedestrian delivery bicycle" speed="3.66" length="4.73" shape="1659.10,948.22 1660.37,948.94 1660.83,949.72 1660.48,950.56 1659.32,951.45"/>
    </edge>
    <edge id=":1082545414_6" function="internal">
        <lane id=":1082545414_6_0" index="0" allow="pedestrian delivery bicycle" speed="4.79" length="7.56" shape="1660.48,955.34 1662.43,953.85 1662.88,952.70 1661.85,951.90 1659.32,951.45"/>
    </edge>
    <edge id=":1082545414_7" function="internal">
        <lane id=":1082545414_7_0" index="0" allow="pedestrian delivery bicycle" speed="5.56" length="15.55" shape="1660.48,955.34 1663.71,953.24 1667.02,951.07 1670.42,949.10 1673.93,947.62"/>
    </edge>
    <edge id=":1082545414_8" function="internal">
        <lane id=":1082545414_8_0" index="0" allow="pedestrian delivery bicycle" speed="3.65" length="4.67" shape="1660.48,955.34 1661.92,955.39 1662.68,955.86 1662.77,956.75 1662.16,958.06"/>
    </edge>
    <edge id=":1082545414_w0" function="walkingarea">
        <lane id=":1082545414_w0_0" index="0" allow="pedestrian" speed="1.00" length="10.75" width="3.20" shape="1675.41,952.19 1674.42,949.14 1674.42,949.14 1673.44,946.09 1659.24,946.62 1658.97,949.81 1659.46,949.85 1659.18,953.04 1659.64,953.98 1661.32,956.70 1661.32,956.70 1663.01,959.42 1672.54,953.23 1670.51,954.20 1668.93,955.22 1667.42,956.36 1665.57,957.73"/>
    </edge>
    <edge id=":1082545551_0" function="internal">
        <lane id=":1082545551_0_0" index="0" allow="pedestrian delivery bicycle" speed="3.65" length="4.67" shape="1601.27,510.55 1602.69,510.28 1603.53,510.57 1603.81,511.42 1603.52,512.83"/>
    </edge>
    <edge id=":1082545657_0" function="internal">
        <lane id=":1082545657_0_0" index="0" allow="pedestrian delivery bicycle" speed="4.99" length="5.06" shape="1391.48,577.40 1390.88,576.14 1390.02,575.39 1388.91,575.16 1387.55,575.45"/>
    </edge>
    <edge id=":1082545657_1" function="internal">
        <lane id=":1082545657_1_0" index="0" allow="pedestrian delivery bicycle" speed="5.56" length="10.20" shape="1391.48,577.40 1391.01,574.60 1391.50,572.31 1392.95,570.52 1395.36,569.25"/>
    </edge>
    <edge id=":1082545657_2" function="internal">
        <lane id=":1082545657_2_0" index="0" allow="pedestrian delivery bicycle" speed="3.65" length="4.67" shape="1391.48,577.40 1391.89,576.02 1392.53,575.40 1393.41,575.54 1394.53,576.45"/>
    </edge>
    <edge id=":1082545657_3" function="internal">
        <lane id=":1082545657_3_0" index="0" allow="pedestrian delivery bicycle" speed="5.18" length="5.18" shape="1396.42,572.27 1395.23,572.91 1394.51,573.82 1394.28,575.00 1394.53,576.45"/>
    </edge>
    <edge id=":1082545657_4" function="internal">
        <lane id=":1082545657_4_0" index="0" allow="pedestrian delivery bicycle" speed="5.56" length="9.42" shape="1396.42,572.27 1387.55,575.45"/>
    </edge>
    <edge id=":1082545657_5" function="internal">
        <lane id=":1082545657_5_0" index="0" allow="pedestrian delivery bicycle" speed="3.65" length="4.67" shape="1396.42,572.27 1395.02,571.92 1394.38,571.29 1394.49,570.41 1395.36,569.25"/>
    </edge>
    <edge id=":1082545657_6" function="internal">
        <lane id=":1082545657_6_0" index="0" allow="pedestrian delivery bicycle" speed="5.56" length="9.46" shape="1386.45,572.45 1395.36,569.25"/>
    </edge>
    <edge id=":1082545657_7" function="internal">
        <lane id=":1082545657_7_0" index="0" allow="pedestrian delivery bicycle" speed="5.56" length="10.41" shape="1386.45,572.45 1389.26,571.86 1391.54,572.33 1393.30,573.86 1394.53,576.45"/>
    </edge>
    <edge id=":1082545657_8" function="internal">