<?xml version="1.0" encoding="UTF-8"?>
<!-- generated on 2021-11-08 15:43:59.472734 by $Id$ v1_8_0+0044-4820708f3d
  options: 
-->
<routes xmlns:xsi="http://www.w3.org/2001/XMLSchema-instance" xsi:noNamespaceSchemaLocation="http://sumo.dlr.de/xsd/routes_file.xsd">
    <vType id="ped_pedestrian" vClass="pedestrian"/>
    <person id="ped0" depart="0.00" type="ped_pedestrian">
        <personTrip from="394660927#2" to="-170012501#3" modes="public"/>
    </person>
    <person id="ped1" depart="4.04" type="ped_pedestrian">
        <personTrip from="-772693140#1" to="-479037394" modes="public"/>
    </person>
    <person id="ped2" depart="8.09" type="ped_pedestrian">
        <personTrip from="468755769#0" to="440710413#2" modes="public"/>
    </person>
    <person id="ped3" depart="12.13" type="ped_pedestrian">
        <personTrip from="69357521#3" to="-360827911#2" modes="public"/>
    </person>
    <person id="ped4" depart="16.18" type="ped_pedestrian">
        <personTrip from="29979508" to="-223581247#2" modes="public"/>
    </person>
    <person id="ped5" depart="20.22" type="ped_pedestrian">
        <personTrip from="-479037374#1" to="382420733" modes="public"/>
    </person>
    <person id="ped6" depart="24.26" type="ped_pedestrian">
        <personTrip from="-210939720#0" to="-447857315#0" modes="public"/>
    </person>
    <person id="ped7" depart="28.31" type="ped_pedestrian">
        <personTrip from="394660935#1" to="388211544#2" modes="public"/>
    </person>
    <person id="ped8" depart="32.35" type="ped_pedestrian">
        <personTrip from="-479037390#1" to="393764306" modes="public"/>
    </person>
    <person id="ped9" depart="36.40" type="ped_pedestrian">
        <personTrip from="511155571#1" to="-150258989#9" modes="public"/>
    </person>
    <person id="ped10" depart="40.44" type="ped_pedestrian">
        <personTrip from="482654639#1" to="446729530#1" modes="public"/>
    </person>
    <person id="ped11" depart="44.48" type="ped_pedestrian">
        <personTrip from="188215405" to="-393764343#10" modes="public"/>
    </person>
    <person id="ped12" depart="48.53" type="ped_pedestrian">
        <personTrip from="926288971#1" to="170012501#1" modes="public"/>
    </person>
    <person id="ped13" depart="52.57" type="ped_pedestrian">
        <personTrip from="-364154090#1" to="-371436527#1" modes="public"/>
    </person>
    <person id="ped14" depart="56.61" type="ped_pedestrian">
        <personTrip from="552900625" to="393764343#1" modes="public"/>
    </person>
    <person id="ped15" depart="60.66" type="ped_pedestrian">
        <personTrip from="482654639#2" to="447857316#4" modes="public"/>
    </person>
    <person id="ped16" depart="64.70" type="ped_pedestrian">
        <personTrip from="387488098#1" to="940972901" modes="public"/>
    </person>
    <person id="ped17" depart="68.75" type="ped_pedestrian">
        <personTrip from="24667797" to="38903574#4" modes="public"/>
    </person>
    <person id="ped18" depart="72.79" type="ped_pedestrian">
        <personTrip from="511852941#4" to="393878671#1" modes="public"/>
    </person>
    <person id="ped19" depart="76.83" type="ped_pedestrian">
        <personTrip from="575525395#2" to="393596508#2" modes="public"/>
    </person>
    <person id="ped20" depart="80.88" type="ped_pedestrian">
        <personTrip from="447857309#1" to="-227500391" modes="public"/>
    </person>
    <person id="ped21" depart="84.92" type="ped_pedestrian">
        <personTrip from="-482442757" to="-93359226#0" modes="public"/>
    </person>
    <person id="ped22" depart="88.97" type="ped_pedestrian">
        <personTrip from="-29979510#1" to="-552900619#1" modes="public"/>
    </person>
    <person id="ped23" depart="93.01" type="ped_pedestrian">
        <personTrip from="-377103316#0" to="-87053632#0" modes="public"/>
    </person>
    <person id="ped24" depart="97.05" type="ped_pedestrian">
        <personTrip from="393984894" to="227338318#0" modes="public"/>
    </person>
    <person id="ped25" depart="101.10" type="ped_pedestrian">
        <personTrip from="227341950#3" to="-447857318" modes="public"/>
    </person>
    <person id="ped26" depart="105.14" type="ped_pedestrian">
        <personTrip from="-772693125#1" to="821216382#1" modes="public"/>
    </person>
    <person id="ped27" depart="109.19" type="ped_pedestrian">
        <personTrip from="394660933" to="393764343#5" modes="public"/>
    </person>
    <person id="ped28" depart="113.23" type="ped_pedestrian">
        <personTrip from="-393984894" to="447857316#3" modes="public"/>
    </person>
    <person id="ped29" depart="117.27" type="ped_pedestrian">
        <personTrip from="-393764343#8" to="24701143" modes="public"/>
    </person>
    <person id="ped30" depart="121.32" type="ped_pedestrian">
        <personTrip from="96198634#0" to="394660927#3" modes="public"/>
    </person>
    <person id="ped31" depart="125.36" type="ped_pedestrian">
        <personTrip from="393248470" to="445988114#0" modes="public"/>
    </person>
    <person id="ped32" depart="129.40" type="ped_pedestrian">
        <personTrip from="552900619#1" to="479118882" modes="public"/>
    </person>
    <person id="ped33" depart="133.45" type="ped_pedestrian">
        <personTrip from="-482907800" to="-223581247#5" modes="public"/>
    </person>
    <person id="ped34" depart="137.49" type="ped_pedestrian">
        <personTrip from="150258990" to="-772693125#2" modes="public"/>
    </person>
    <person id="ped35" depart="141.54" type="ped_pedestrian">
        <personTrip from="-468755769#0" to="84526822#0" modes="public"/>
    </person>
    <person id="ped36" depart="145.58" type="ped_pedestrian">
        <personTrip from="683185824" to="150258989#9" modes="public"/>
    </person>
    <person id="ped37" depart="149.62" type="ped_pedestrian">
        <personTrip from="395255399#0" to="25691686#1" modes="public"/>
    </person>
    <person id="ped38" depart="153.67" type="ped_pedestrian">
        <personTrip from="769481077" to="371436527#0" modes="public"/>
    </person>
    <person id="ped39" depart="157.71" type="ped_pedestrian">
        <personTrip from="-772693124#0" to="-684165134" modes="public"/>
    </person>
    <person id="ped40" depart="161.76" type="ped_pedestrian">
        <personTrip from="393248498#0" to="-769481077" modes="public"/>
    </person>
    <person id="ped41" depart="165.80" type="ped_pedestrian">
        <personTrip from="393764297#3" to="718314465" modes="public"/>
    </person>
    <person id="ped42" depart="169.84" type="ped_pedestrian">
        <personTrip from="25822391" to="-479037390#0" modes="public"/>
    </person>
    <person id="ped43" depart="173.89" type="ped_pedestrian">
        <personTrip from="996642881" to="384709893#3" modes="public"/>
    </person>
    <person id="ped44" depart="177.93" type="ped_pedestrian">
        <personTrip from="-364154088#2" to="-24045593#1" modes="public"/>
    </person>
    <person id="ped45" depart="181.98" type="ped_pedestrian">
        <personTrip from="-377625717#0" to="393907860#0" modes="public"/>
    </person>
    <person id="ped46" depart="186.02" type="ped_pedestrian">
        <personTrip from="482442759#2" to="29979508" modes="public"/>
    </person>
    <person id="ped47" depart="190.06" type="ped_pedestrian">
        <personTrip from="-25822399#2" to="251420261#1" modes="public"/>
    </person>
    <person id="ped48" depart="194.11" type="ped_pedestrian">
        <personTrip from="971622255#1" to="385152955" modes="public"/>
    </person>
    <person id="ped49" depart="198.15" type="ped_pedestrian">
        <personTrip from="940942610#1" to="575525395#1" modes="public"/>
    </person>
    <person id="ped50" depart="202.20" type="ped_pedestrian">
        <personTrip from="-162561738#1" to="447857315#0" modes="public"/>
    </person>
    <person id="ped51" depart="206.24" type="ped_pedestrian">
        <personTrip from="440739713#3" to="387830973#0" modes="public"/>
    </person>
    <person id="ped52" depart="210.28" type="ped_pedestrian">
        <personTrip from="-772693125#1" to="394660928#0" modes="public"/>
    </person>
    <person id="ped53" depart="214.33" type="ped_pedestrian">
        <personTrip from="-377625717#3" to="326522373#1" modes="public"/>
    </person>
    <person id="ped54" depart="218.37" type="ped_pedestrian">
        <personTrip from="364154090#1" to="926271732#1" modes="public"/>
    </person>
    <person id="ped55" depart="222.41" type="ped_pedestrian">
        <personTrip from="683185824" to="-769481078" modes="public"/>
    </person>
    <person id="ped56" depart="226.46" type="ped_pedestrian">
        <personTrip from="379136137#9" to="-43661121#1" modes="public"/>
    </person>
    <person id="ped57" depart="230.50" type="ped_pedestrian">
        <personTrip from="753485006" to="663774150#0" modes="public"/>
    </person>
    <person id="ped58" depart="234.55" type="ped_pedestrian">
        <personTrip from="-958944829#3" to="394660927#2" modes="public"/>
    </person>
    <person id="ped59" depart="238.59" type="ped_pedestrian">
        <personTrip from="393764343#3" to="-393764314" modes="public"/>
    </person>
    <person id="ped60" depart="242.63" type="ped_pedestrian">
        <personTrip from="479037387#1" to="388006867#3" modes="public"/>
    </person>
    <person id="ped61" depart="246.68" type="ped_pedestrian">
        <personTrip from="479178950#2" to="385152956" modes="public"/>
    </person>
    <person id="ped62" depart="250.72" type="ped_pedestrian">
        <personTrip from="-150258989#0" to="162561738#2" modes="public"/>
    </person>
    <person id="ped63" depart="254.77" type="ped_pedestrian">
        <personTrip from="-163993620#1" to="772693140#0" modes="public"/>
    </person>
    <person id="ped64" depart="258.81" type="ped_pedestrian">
        <personTrip from="688177214" to="520948065" modes="public"/>
    </person>
    <person id="ped65" depart="262.85" type="ped_pedestrian">
        <personTrip from="149642749" to="-25691686#1" modes="public"/>
    </person>
    <person id="ped66" depart="266.90" type="ped_pedestrian">
        <personTrip from="688177213#0" to="87053632#0" modes="public"/>
    </person>
    <person id="ped67" depart="270.94" type="ped_pedestrian">
        <personTrip from="-339708929" to="377625717#3" modes="public"/>
    </person>
    <person id="ped68" depart="274.99" type="ped_pedestrian">
        <personTrip from="-26149326#1" to="479037385#0" modes="public"/>
    </person>
    <person id="ped69" depart="279.03" type="ped_pedestrian">
        <personTrip from="479037388#4" to="-385152953" modes="public"/>
    </person>
    <person id="ped70" depart="283.07" type="ped_pedestrian">
        <personTrip from="377213297#1" to="38903574#1" modes="public"/>
    </person>
    <person id="ped71" depart="287.12" type="ped_pedestrian">
        <personTrip from="-772693124#1" to="670024857" modes="public"/>
    </person>
    <person id="ped72" depart="291.16" type="ped_pedestrian">
        <personTrip from="29979510#0" to="-468755769#1" modes="public"/>
    </person>
    <person id="ped73" depart="295.21" type="ped_pedestrian">
        <personTrip from="388006867#3" to="447857316#4" modes="public"/>
    </person>
    <person id="ped74" depart="299.25" type="ped_pedestrian">
        <personTrip from="-447857315#3" to="150258989#4" modes="public"/>
    </person>
    <person id="ped75" depart="303.29" type="ped_pedestrian">
        <personTrip from="96202384#1" to="394660935#1" modes="public"/>
    </person>
    <person id="ped76" depart="307.34" type="ped_pedestrian">
        <personTrip from="338332424#1" to="385079497" modes="public"/>
    </person>
    <person id="ped77" depart="311.38" type="ped_pedestrian">
        <personTrip from="-384709895#1" to="-479037395" modes="public"/>
    </person>
    <person id="ped78" depart="315.42" type="ped_pedestrian">
        <personTrip from="170012501#2" to="393764300#3" modes="public"/>
    </person>
    <person id="ped79" depart="319.47" type="ped_pedestrian">
        <personTrip from="-533269774" to="-479037390#1" modes="public"/>
    </person>
    <person id="ped80" depart="323.51" type="ped_pedestrian">
        <personTrip from="-26149328#1" to="393907870#1" modes="public"/>
    </person>
    <person id="ped81" depart="327.56" type="ped_pedestrian">
        <personTrip from="-482907800" to="738164999#0" modes="public"/>
    </person>
    <person id="ped82" depart="331.60" type="ped_pedestrian">
        <personTrip from="575525393#2" to="-26149328#1" modes="public"/>
    </person>
    <person id="ped83" depart="335.64" type="ped_pedestrian">
        <personTrip from="-552900626" to="426538581#0" modes="public"/>
    </person>
    <person id="ped84" depart="339.69" type="ped_pedestrian">
        <personTrip from="-476631725" to="-387830973#1" modes="public"/>
    </person>
    <person id="ped85" depart="343.73" type="ped_pedestrian">
        <personTrip from="821216382#0" to="393248508" modes="public"/>
    </person>
    <person id="ped86" depart="347.78" type="ped_pedestrian">
        <personTrip from="377103317" to="479178957#3" modes="public"/>
    </person>
    <person id="ped87" depart="351.82" type="ped_pedestrian">
        <personTrip from="482907800" to="-447857310#0" modes="public"/>
    </person>
    <person id="ped88" depart="355.86" type="ped_pedestrian">
        <personTrip from="-371436527#1" to="313843753#1" modes="public"/>
    </person>
    <person id="ped89" depart="359.91" type="ped_pedestrian">
        <personTrip from="29979510#1" to="375371401" modes="public"/>
    </person>
    <person id="ped90" depart="363.95" type="ped_pedestrian">
        <personTrip from="447857316#3" to="440710412#0" modes="public"/>
    </person>
    <person id="ped91" depart="368.00" type="ped_pedestrian">
        <personTrip from="958949614#0" to="-371436540#2" modes="public"/>
    </person>
    <person id="ped92" depart="372.04" type="ped_pedestrian">
        <personTrip from="25822399#3" to="176014078" modes="public"/>
    </person>
    <person id="ped93" depart="376.08" type="ped_pedestrian">
        <personTrip from="575525395#2" to="-688177216" modes="public"/>
    </person>
    <person id="ped94" depart="380.13" type="ped_pedestrian">
        <personTrip from="-447857310#0" to="360827911#2" modes="public"/>
    </person>
    <person id="ped95" depart="384.17" type="ped_pedestrian">
        <personTrip from="29979508" to="-87053632#1" modes="public"/>
    </person>
    <person id="ped96" depart="388.21" type="ped_pedestrian">
        <personTrip from="-69353456#1" to="772693129#2" modes="public"/>
    </person>
    <person id="ped97" depart="392.26" type="ped_pedestrian">
        <personTrip from="353046122#1" to="575525395#2" modes="public"/>
    </person>
    <person id="ped98" depart="396.30" type="ped_pedestrian">
        <personTrip from="38903574#2" to="-25210189#2" modes="public"/>
    </person>
    <person id="ped99" depart="400.35" type="ped_pedestrian">
        <personTrip from="997946638" to="533269771#0" modes="public"/>
    </person>
    <person id="ped100" depart="404.39" type="ped_pedestrian">
        <personTrip from="93359226#2" to="772693130" modes="public"/>
    </person>
    <person id="ped101" depart="408.43" type="ped_pedestrian">
        <personTrip from="552900627" to="-393907860#0" modes="public"/>
    </person>
    <person id="ped102" depart="412.48" type="ped_pedestrian">
        <personTrip from="377625717#3" to="-468755769#3" modes="public"/>
    </person>
    <person id="ped103" depart="416.52" type="ped_pedestrian">
        <personTrip from="25822399#1" to="-25691686#1" modes="public"/>
    </person>
    <person id="ped104" depart="420.57" type="ped_pedestrian">
        <personTrip from="24667797" to="958949614#1" modes="public"/>
    </person>
    <person id="ped105" depart="424.61" type="ped_pedestrian">
        <personTrip from="-772693124#1" to="479178957#2" modes="public"/>
    </person>
    <person id="ped106" depart="428.65" type="ped_pedestrian">
        <personTrip from="364154097#0" to="29979510#0" modes="public"/>
    </person>
    <person id="ped107" depart="432.70" type="ped_pedestrian">
        <personTrip from="926288971#1" to="96202384#1" modes="public"/>
    </person>
    <person id="ped108" depart="436.74" type="ped_pedestrian">
        <personTrip from="393248455" to="447857313#1" modes="public"/>
    </person>
    <person id="ped109" depart="440.79" type="ped_pedestrian">
        <personTrip from="-393764343#1" to="-958944829#1" modes="public"/>
    </person>
    <person id="ped110" depart="444.83" type="ped_pedestrian">
        <personTrip from="93359226#2" to="393613650#0" modes="public"/>
    </person>
    <person id="ped111" depart="448.87" type="ped_pedestrian">
        <personTrip from="388211543" to="477115073#1" modes="public"/>
    </person>
    <person id="ped112" depart="452.92" type="ped_pedestrian">
        <personTrip from="-25691686#0" to="393764297#2" modes="public"/>
    </person>
    <person id="ped113" depart="456.96" type="ped_pedestrian">
        <personTrip from="381988749#0" to="570972281#1" modes="public"/>
    </person>
    <person id="ped114" depart="461.01" type="ped_pedestrian">
        <personTrip from="-393764343#12" to="93359176#0" modes="public"/>
    </person>
    <person id="ped115" depart="465.05" type="ped_pedestrian">
        <personTrip from="-29979524" to="-447857309#4" modes="public"/>
    </person>
    <person id="ped116" depart="469.09" type="ped_pedestrian">
        <personTrip from="393764316#1" to="440710413#0" modes="public"/>
    </person>
    <person id="ped117" depart="473.14" type="ped_pedestrian">
        <personTrip from="-552900619#4" to="-384709893#7" modes="public"/>
    </person>
    <person id="ped118" depart="477.18" type="ped_pedestrian">
        <personTrip from="69353459#0" to="-684165134" modes="public"/>
    </person>
    <person id="ped119" depart="481.22" type="ped_pedestrian">
        <personTrip from="393764316#0" to="393878673#0" modes="public"/>
    </person>
    <person id="ped120" depart="485.27" type="ped_pedestrian">
        <personTrip from="293306711#0" to="393764297#2" modes="public"/>
    </person>
    <person id="ped121" depart="489.31" type="ped_pedestrian">
        <personTrip from="385152951" to="809062693" modes="public"/>
    </person>
    <person id="ped122" depart="493.36" type="ped_pedestrian">
        <personTrip from="-447857315#6" to="447857312#0" modes="public"/>
    </person>
    <person id="ped123" depart="497.40" type="ped_pedestrian">
        <personTrip from="-552900627" to="25691686#1" modes="public"/>
    </person>
    <person id="ped124" depart="501.44" type="ped_pedestrian">
        <personTrip from="43661121#0" to="-958944829#5" modes="public"/>
    </person>
    <person id="ped125" depart="505.49" type="ped_pedestrian">
        <personTrip from="150258991" to="477115075#3" modes="public"/>
    </person>
    <person id="ped126" depart="509.53" type="ped_pedestrian">
        <personTrip from="-26149331" to="371436527#0" modes="public"/>
    </person>
    <person id="ped127" depart="513.58" type="ped_pedestrian">
        <personTrip from="997235212" to="971622255#1" modes="public"/>
    </person>
    <person id="ped128" depart="517.62" type="ped_pedestrian">
        <personTrip from="-27414767#0" to="-468755769#3" modes="public"/>
    </person>
    <person id="ped129" depart="521.66" type="ped_pedestrian">
        <personTrip from="-772693124#1" to="785709734" modes="public"/>
    </person>
    <person id="ped130" depart="525.71" type="ped_pedestrian">
        <personTrip from="688177217" to="688177215" modes="public"/>
    </person>
    <person id="ped131" depart="529.75" type="ped_pedestrian">
        <personTrip from="227341950#1" to="-393764343#13" modes="public"/>
    </person>
    <person id="ped132" depart="533.80" type="ped_pedestrian">
        <personTrip from="533269767" to="446729531#4" modes="public"/>
    </person>
    <person id="ped133" depart="537.84" type="ped_pedestrian">
        <personTrip from="393764343#8" to="96198630#0" modes="public"/>
    </person>
    <person id="ped134" depart="541.88" type="ped_pedestrian">
        <personTrip from="394662442" to="-150258991" modes="public"/>
    </person>
    <person id="ped135" depart="545.93" type="ped_pedestrian">
        <personTrip from="511852935#2" to="-958944829#4" modes="public"/>
    </person>
    <person id="ped136" depart="549.97" type="ped_pedestrian">
        <personTrip from="42299654#1" to="84526771#0" modes="public"/>
    </person>
    <person id="ped137" depart="554.01" type="ped_pedestrian">
        <personTrip from="-388006867#1" to="-384709893#2" modes="public"/>
    </person>
    <person id="ped138" depart="558.06" type="ped_pedestrian">
        <personTrip from="-377213304#3" to="38903574#5" modes="public"/>
    </person>
    <person id="ped139" depart="562.10" type="ped_pedestrian">
        <personTrip from="-772693129#4" to="393764343#11" modes="public"/>
    </person>
    <person id="ped140" depart="566.15" type="ped_pedestrian">
        <personTrip from="447857313#0" to="-447857315#6" modes="public"/>
    </person>
    <person id="ped141" depart="570.19" type="ped_pedestrian">
        <personTrip from="393907872#3" to="-769481078" modes="public"/>
    </person>
    <person id="ped142" depart="574.23" type="ped_pedestrian">
        <personTrip from="379136137#10" to="738164999#0" modes="public"/>
    </person>
    <person id="ped143" depart="578.28" type="ped_pedestrian">
        <personTrip from="552900620" to="-364154090#1" modes="public"/>
    </person>
    <person id="ped144" depart="582.32" type="ped_pedestrian">
        <personTrip from="29979510#1" to="-785709734" modes="public"/>
    </person>
    <person id="ped145" depart="586.37" type="ped_pedestrian">
        <personTrip from="-150258989#5" to="479037390#1" modes="public"/>
    </person>
    <person id="ped146" depart="590.41" type="ped_pedestrian">
        <personTrip from="394472053#1" to="-753485005" modes="public"/>
    </person>
    <person id="ped147" depart="594.45" type="ped_pedestrian">
        <personTrip from="476631726#0" to="38903574#3" modes="public"/>
    </person>
    <person id="ped148" depart="598.50" type="ped_pedestrian">
        <personTrip from="313843749#1" to="-150258992#1" modes="public"/>
    </person>
    <person id="ped149" depart="602.54" type="ped_pedestrian">
        <personTrip from="-293306710" to="69353439#2" modes="public"/>
    </person>
    <person id="ped150" depart="606.59" type="ped_pedestrian">
        <personTrip from="73204671#1" to="388280781" modes="public"/>
    </person>
    <person id="ped151" depart="610.63" type="ped_pedestrian">
        <personTrip from="533269770#0" to="393764293#1" modes="public"/>
    </person>
    <person id="ped152" depart="614.67" type="ped_pedestrian">
        <personTrip from="-393596508#1" to="-385152952#3" modes="public"/>
    </person>
    <person id="ped153" depart="618.72" type="ped_pedestrian">
        <personTrip from="149642749" to="718314466#0" modes="public"/>
    </person>
    <person id="ped154" depart="622.76" type="ped_pedestrian">
        <personTrip from="482442763#0" to="575525395#1" modes="public"/>
    </person>
    <person id="ped155" depart="626.81" type="ped_pedestrian">
        <personTrip from="718314466#0" to="-468428777" modes="public"/>
    </person>
    <person id="ped156" depart="630.85" type="ped_pedestrian">
        <personTrip from="-688177217" to="-377103316#2" modes="public"/>
    </person>
    <person id="ped157" depart="634.89" type="ped_pedestrian">
        <personTrip from="479178950#3" to="69353439#6" modes="public"/>
    </person>
    <person id="ped158" depart="638.94" type="ped_pedestrian">
        <personTrip from="26149300#2" to="393878673#1" modes="public"/>
    </person>
    <person id="ped159" depart="642.98" type="ped_pedestrian">
        <personTrip from="-393764343#1" to="772693140#1" modes="public"/>
    </person>
    <person id="ped160" depart="647.02" type="ped_pedestrian">
        <personTrip from="630262535#0" to="940978676#4" modes="public"/>
    </person>
    <person id="ped161" depart="651.07" type="ped_pedestrian">
        <personTrip from="511155573#0" to="688177217" modes="public"/>
    </person>
    <person id="ped162" depart="655.11" type="ped_pedestrian">
        <personTrip from="-170012501#3" to="468755769#0" modes="public"/>
    </person>
    <person id="ped163" depart="659.16" type="ped_pedestrian">
        <personTrip from="163993620#1" to="772693145" modes="public"/>
    </person>
    <person id="ped164" depart="663.20" type="ped_pedestrian">
        <personTrip from="482442765#4" to="630262534" modes="public"/>
    </person>
    <person id="ped165" depart="667.24" type="ped_pedestrian">
        <personTrip from="511155573#0" to="-772693125#1" modes="public"/>
    </person>
    <person id="ped166" depart="671.29" type="ped_pedestrian">
        <personTrip from="479264599" to="-377213305" modes="public"/>
    </person>
    <person id="ped167" depart="675.33" type="ped_pedestrian">
        <personTrip from="663774150#2" to="575224405#2" modes="public"/>
    </person>
    <person id="ped168" depart="679.38" type="ped_pedestrian">
        <personTrip from="-479037393" to="511852935#1" modes="public"/>
    </person>
    <person id="ped169" depart="683.42" type="ped_pedestrian">
        <personTrip from="371436527#2" to="-96198635" modes="public"/>
    </person>
    <person id="ped170" depart="687.46" type="ped_pedestrian">
        <personTrip from="482442760#1" to="-482442757" modes="public"/>
    </person>
    <person id="ped171" depart="691.51" type="ped_pedestrian">
        <personTrip from="-170012501#1" to="-447857311#1" modes="public"/>
    </person>
    <person id="ped172" depart="695.55" type="ped_pedestrian">
        <personTrip from="162563271#0" to="630262534" modes="public"/>
    </person>
    <person id="ped173" depart="699.60" type="ped_pedestrian">
        <personTrip from="93359226#0" to="-87053632#1" modes="public"/>
    </person>
    <person id="ped174" depart="703.64" type="ped_pedestrian">
        <personTrip from="394660928#1" to="25822399#0" modes="public"/>
    </person>
    <person id="ped175" depart="707.68" type="ped_pedestrian">
        <personTrip from="958944829#2" to="387488098#1" modes="public"/>
    </person>
    <person id="ped176" depart="711.73" type="ped_pedestrian">
        <personTrip from="84526771#0" to="-384709893#2" modes="public"/>
    </person>
    <person id="ped177" depart="715.77" type="ped_pedestrian">
        <personTrip from="93359245" to="-43661121#1" modes="public"/>
    </person>
    <person id="ped178" depart="719.82" type="ped_pedestrian">
        <personTrip from="93359206" to="-772693124#1" modes="public"/>
    </person>
    <person id="ped179" depart="723.86" type="ped_pedestrian">
        <personTrip from="-377625002#1" to="326522373#1" modes="public"/>
    </person>
    <person id="ped180" depart="727.90" type="ped_pedestrian">
        <personTrip from="447857316#3" to="150258989#8" modes="public"/>
    </person>
    <person id="ped181" depart="731.95" type="ped_pedestrian">
        <personTrip from="393764343#12" to="384709893#5" modes="public"/>
    </person>
    <person id="ped182" depart="735.99" type="ped_pedestrian">
        <personTrip from="251421193#0" to="393596508#1" modes="public"/>
    </person>
    <person id="ped183" depart="740.03" type="ped_pedestrian">
        <personTrip from="-69357521#4" to="447857309#6" modes="public"/>
    </person>
    <person id="ped184" depart="744.08" type="ped_pedestrian">
        <personTrip from="-150258989#2" to="772693129#6" modes="public"/>
    </person>
    <person id="ped185" depart="748.12" type="ped_pedestrian">
        <personTrip from="388006867#1" to="447857314#0" modes="public"/>
    </person>
    <person id="ped186" depart="752.17" type="ped_pedestrian">
        <personTrip from="476631726#1" to="426538581#2" modes="public"/>
    </person>
    <person id="ped187" depart="756.21" type="ped_pedestrian">
        <personTrip from="227337561" to="-26149328#0" modes="public"/>
    </person>
    <person id="ped188" depart="760.25" type="ped_pedestrian">
        <personTrip from="423133512" to="163993197" modes="public"/>
    </person>
    <person id="ped189" depart="764.30" type="ped_pedestrian">
        <personTrip from="150258989#8" to="552900626" modes="public"/>
    </person>
    <person id="ped190" depart="768.34" type="ped_pedestrian">
        <personTrip from="447857314#0" to="-958944829#5" modes="public"/>
    </person>
    <person id="ped191" depart="772.39" type="ped_pedestrian">
        <personTrip from="150258989#2" to="26149326#0" modes="public"/>
    </person>
    <person id="ped192" depart="776.43" type="ped_pedestrian">
        <personTrip from="25822399#3" to="-958944829#0" modes="public"/>
    </person>
    <person id="ped193" depart="780.47" type="ped_pedestrian">
        <personTrip from="-385152952#3" to="293306711#1" modes="public"/>
    </person>
    <person id="ped194" depart="784.52" type="ped_pedestrian">
        <personTrip from="84526771#1" to="440710413#3" modes="public"/>
    </person>
    <person id="ped195" depart="788.56" type="ped_pedestrian">
        <personTrip from="718314466#4" to="393854027#0" modes="public"/>
    </person>
    <person id="ped196" depart="792.61" type="ped_pedestrian">
        <personTrip from="-96198629#0" to="388280784#2" modes="public"/>
    </person>
    <person id="ped197" depart="796.65" type="ped_pedestrian">
        <personTrip from="-150258989#0" to="-93359213#2" modes="public"/>
    </person>
    <person id="ped198" depart="800.69" type="ped_pedestrian">
        <personTrip from="313843749#3" to="393613650#1" modes="public"/>
    </person>
    <person id="ped199" depart="804.74" type="ped_pedestrian">