<?xml version="1.0" encoding="UTF-8"?>

<!-- generated on 11/08/21 15:43:56 by Eclipse SUMO duarouter Version 1.8.0
<configuration xmlns:xsi="http://www.w3.org/2001/XMLSchema-instance" xsi:noNamespaceSchemaLocation="http://sumo.dlr.de/xsd/duarouterConfiguration.xsd">

    <input>
        <net-file value="C:\Users\faisa\Downloads\sumo-1.8.0\tools\2021-11-08-15-43-45\osm.net.xml"/>
        <route-files value="C:\Users\faisa\Downloads\sumo-1.8.0\tools\2021-11-08-15-43-45\osm.passenger.trips.xml"/>
    </input>

    <output>
        <output-file value="C:\Users\faisa\Downloads\sumo-1.8.0\tools\2021-11-08-15-43-45\osm.passenger.trips.xml.tmp"/>
        <write-trips value="true"/>
    </output>

    <time>
        <begin value="0"/>
        <end value="3600"/>
    </time>

    <report>
        <no-warnings value="true"/>
        <ignore-errors value="true"/>
        <no-step-log value="true"/>
    </report>

</configuration>
-->

<routes xmlns:xsi="http://www.w3.org/2001/XMLSchema-instance" xsi:noNamespaceSchemaLocation="http://sumo.dlr.de/xsd/routes_file.xsd">
    <vType id="veh_passenger" vClass="passenger"/>
    <trip id="veh0" type="veh_passenger" depart="0.00" departLane="best" from="382420753" to="-162563271#0"/>
    <trip id="veh1" type="veh_passenger" depart="5.88" departLane="best" from="-440739713#3" to="-381988749#1"/>
    <trip id="veh2" type="veh_passenger" depart="11.76" departLane="best" from="393764300#1" to="388006867#1"/>
    <trip id="veh3" type="veh_passenger" depart="17.64" departLane="best" from="69353459#0" to="-24045593#0"/>
    <trip id="veh4" type="veh_passenger" depart="23.52" departLane="best" from="23019727#1" to="-163993620#0"/>
    <trip id="veh5" type="veh_passenger" depart="29.40" departLane="best" from="-371436540#2" to="25691686#1"/>
    <trip id="veh6" type="veh_passenger" depart="35.28" departLane="best" departSpeed="max" from="-150258989#9" to="-360827911#1"/>
    <trip id="veh7" type="veh_passenger" depart="41.16" departLane="best" from="-371436540#2" to="360827911#3"/>
    <trip id="veh8" type="veh_passenger" depart="47.04" departLane="best" from="440710413#1" to="-150258989#3"/>
    <trip id="veh9" type="veh_passenger" depart="52.92" departLane="best" from="440710413#0" to="393248497#0"/>
    <trip id="veh10" type="veh_passenger" depart="58.80" departLane="best" from="162563271#1" to="-26149326#0"/>
    <trip id="veh11" type="veh_passenger" depart="64.68" departLane="best" from="84526822#1" to="150258989#9"/>
    <trip id="veh12" type="veh_passenger" depart="70.56" departLane="best" from="-223581247#5" to="-25210189#4"/>
    <trip id="veh13" type="veh_passenger" depart="76.44" departLane="best" from="520948066" to="371436540#1"/>
    <trip id="veh14" type="veh_passenger" depart="82.32" departLane="best" from="440710413#0" to="393764293#1"/>
    <trip id="veh15" type="veh_passenger" depart="88.20" departLane="best" departSpeed="max" from="26149331" to="84526822#1"/>
    <trip id="veh16" type="veh_passenger" depart="94.08" departLane="best" departSpeed="max" from="194714681" to="293867127"/>
    <trip id="veh17" type="veh_passenger" depart="99.96" departLane="best" from="663774150#0" to="314738746#1"/>
    <trip id="veh18" type="veh_passenger" depart="105.84" departLane="best" departSpeed="max" from="-387830973#1" to="-87053632#0"/>
    <trip id="veh19" type="veh_passenger" depart="111.72" departLane="best" from="-170012501#1" to="-388006867#1"/>
    <trip id="veh20" type="veh_passenger" depart="117.60" departLane="best" from="-227341950#3" to="-718314466#4"/>
    <trip id="veh21" type="veh_passenger" depart="123.48" departLane="best" from="382224391" to="150258992#0"/>
    <trip id="veh22" type="veh_passenger" depart="129.36" departLane="best" departSpeed="max" from="194714681" to="-371436540#1"/>
    <trip id="veh24" type="veh_passenger" depart="141.12" departLane="best" from="385080086#0" to="375371401"/>
    <trip id="veh25" type="veh_passenger" depart="147.00" departLane="best" departSpeed="max" from="-25691686#1" to="152100999"/>
    <trip id="veh26" type="veh_passenger" depart="152.88" departLane="best" from="96202364#0" to="385080086#0"/>
    <trip id="veh27" type="veh_passenger" depart="158.76" departLane="best" from="28246185" to="388211543"/>
    <trip id="veh28" type="veh_passenger" depart="164.64" departLane="best" from="520948065" to="393878678"/>
    <trip id="veh29" type="veh_passenger" depart="170.52" departLane="best" departSpeed="max" from="-387830973#1" to="-163993620#0"/>
    <trip id="veh30" type="veh_passenger" depart="176.40" departLane="best" from="150258989#3" to="-440739713#3"/>
    <trip id="veh31" type="veh_passenger" depart="182.28" departLane="best" from="69353439#6" to="150258989#3"/>
    <trip id="veh32" type="veh_passenger" depart="188.16" departLane="best" from="387488096#1" to="170012501#2"/>
    <trip id="veh33" type="veh_passenger" depart="194.04" departLane="best" from="713057044" to="24045593#1"/>
    <trip id="veh34" type="veh_passenger" depart="199.92" departLane="best" from="29979510#0" to="-440739713#1"/>
    <trip id="veh35" type="veh_passenger" depart="205.80" departLane="best" from="223581247#3" to="-381988749#0"/>
    <trip id="veh36" type="veh_passenger" depart="211.68" departLane="best" from="96202384#1" to="25691686#1"/>
    <trip id="veh37" type="veh_passenger" depart="217.56" departLane="best" from="-223581247#4" to="-170012501#2"/>
    <trip id="veh38" type="veh_passenger" depart="223.44" departLane="best" departSpeed="max" from="-227341950#4" to="381988749#1"/>
    <trip id="veh41" type="veh_passenger" depart="241.08" departLane="best" from="96202384#0" to="25822399#4"/>
    <trip id="veh42" type="veh_passenger" depart="246.96" departLane="best" departSpeed="max" from="87053632#0" to="440739713#2"/>
    <trip id="veh43" type="veh_passenger" depart="252.84" departLane="best" from="-150258989#4" to="393248511#0"/>
    <trip id="veh44" type="veh_passenger" depart="258.72" departLane="best" from="388211543" to="26149310"/>
    <trip id="veh46" type="veh_passenger" depart="270.48" departLane="best" from="-24045593#0" to="227341950#4"/>
    <trip id="veh47" type="veh_passenger" depart="276.36" departLane="best" from="25210189#7" to="780648238#0"/>
    <trip id="veh48" type="veh_passenger" depart="282.24" departLane="best" departSpeed="max" from="69353466" to="476631724"/>
    <trip id="veh49" type="veh_passenger" depart="288.12" departLane="best" from="-87053632#1" to="385079851"/>
    <trip id="veh50" type="veh_passenger" depart="294.00" departLane="best" from="42299166#0" to="26149326#1"/>
    <trip id="veh51" type="veh_passenger" depart="299.88" departLane="best" from="426538578" to="26149299"/>
    <trip id="veh52" type="veh_passenger" depart="305.76" departLane="best" from="-150258989#0" to="150258989#6"/>
    <trip id="veh53" type="veh_passenger" depart="311.64" departLane="best" from="-150258989#8" to="69353459#0"/>
    <trip id="veh54" type="veh_passenger" depart="317.52" departLane="best" from="69353439#7" to="426538581#2"/>
    <trip id="veh55" type="veh_passenger" depart="323.40" departLane="best" from="150258989#0" to="-223581247#0"/>
    <trip id="veh56" type="veh_passenger" depart="329.28" departLane="best" from="69353439#7" to="73204671#1"/>
    <trip id="veh57" type="veh_passenger" depart="335.16" departLane="best" from="-223581247#2" to="25210189#6"/>
    <trip id="veh58" type="veh_passenger" depart="341.04" departLane="best" departSpeed="max" from="-150258992#2" to="393764300#2"/>
    <trip id="veh59" type="veh_passenger" depart="346.92" departLane="best" from="42299170#1" to="-25822399#2"/>
    <trip id="veh60" type="veh_passenger" depart="352.80" departLane="best" departSpeed="max" from="25822399#0" to="28246185"/>
    <trip id="veh61" type="veh_passenger" depart="358.68" departLane="best" from="-42299170#1" to="476707103#0"/>
    <trip id="veh62" type="veh_passenger" depart="364.56" departLane="best" departSpeed="max" from="27414767#0" to="393764293#1"/>
    <trip id="veh63" type="veh_passenger" depart="370.44" departLane="best" from="96202384#0" to="387488096#1"/>
    <trip id="veh64" type="veh_passenger" depart="376.32" departLane="best" from="251421193#0" to="25691739#1"/>
    <trip id="veh65" type="veh_passenger" depart="382.20" departLane="best" departSpeed="max" from="-387830973#1" to="-381988749#0"/>
    <trip id="veh66" type="veh_passenger" depart="388.08" departLane="best" from="-162563271#0" to="382224391"/>
    <trip id="veh67" type="veh_passenger" depart="393.96" departLane="best" departSpeed="max" from="-387830973#1" to="683185817"/>
    <trip id="veh68" type="veh_passenger" depart="399.84" departLane="best" from="594713490" to="-223581248"/>
    <trip id="veh69" type="veh_passenger" depart="405.72" departLane="best" from="-388006867#1" to="387830973#1"/>
    <trip id="veh71" type="veh_passenger" depart="417.48" departLane="best" departSpeed="max" from="25822399#0" to="408845038"/>
    <trip id="veh72" type="veh_passenger" depart="423.36" departLane="best" from="440710413#1" to="-27414767#0"/>
    <trip id="veh73" type="veh_passenger" depart="429.24" departLane="best" from="-227341950#0" to="227341950#4"/>
    <trip id="veh74" type="veh_passenger" depart="435.12" departLane="best" from="23019727#2" to="24701143"/>
    <trip id="veh75" type="veh_passenger" depart="441.00" departLane="best" from="393764297#2" to="387830973#1"/>
    <trip id="veh76" type="veh_passenger" depart="446.88" departLane="best" departSpeed="max" from="897996547" to="-25210189#5"/>
    <trip id="veh77" type="veh_passenger" depart="452.76" departLane="best" from="223581247#5" to="150258989#9"/>
    <trip id="veh78" type="veh_passenger" depart="458.64" departLane="best" from="663774150#0" to="-42299170#1"/>
    <trip id="veh79" type="veh_passenger" depart="464.52" departLane="best" from="-29979508" to="23019727#2"/>
    <trip id="veh80" type="veh_passenger" depart="470.40" departLane="best" from="23019727#1" to="-769481078"/>
    <trip id="veh81" type="veh_passenger" depart="476.28" departLane="best" from="-393249358#1" to="69353439#6"/>
    <trip id="veh82" type="veh_passenger" depart="482.16" departLane="best" from="25210189#10" to="440739713#2"/>
    <trip id="veh83" type="veh_passenger" depart="488.04" departLane="best" from="28242822#0" to="-223581247#0"/>
    <trip id="veh84" type="veh_passenger" depart="493.91" departLane="best" from="96202384#1" to="440710412#0"/>
    <trip id="veh85" type="veh_passenger" depart="499.79" departLane="best" departSpeed="max" from="87053632#0" to="69353459#0"/>
    <trip id="veh87" type="veh_passenger" depart="511.55" departLane="best" from="26149299" to="-381988749#0"/>
    <trip id="veh88" type="veh_passenger" depart="517.43" departLane="best" from="223581247#4" to="-223581247#0"/>
    <trip id="veh89" type="veh_passenger" depart="523.31" departLane="best" departSpeed="max" from="194714681" to="9232836#0"/>
    <trip id="veh90" type="veh_passenger" depart="529.19" departLane="best" from="-42299170#1" to="408845038"/>
    <trip id="veh91" type="veh_passenger" depart="535.07" departLane="best" from="25210189#8" to="227337561"/>
    <trip id="veh92" type="veh_passenger" depart="540.95" departLane="best" from="84526822#1" to="96202384#0"/>
    <trip id="veh93" type="veh_passenger" depart="546.83" departLane="best" from="-25691686#0" to="-96202384#0"/>
    <trip id="veh94" type="veh_passenger" depart="552.71" departLane="best" departSpeed="max" from="87053632#0" to="338332423#0"/>
    <trip id="veh95" type="veh_passenger" depart="558.59" departLane="best" departSpeed="max" from="27414767#0" to="393764293#1"/>
    <trip id="veh96" type="veh_passenger" depart="564.47" departLane="best" from="-150258992#0" to="360827911#1"/>
    <trip id="veh97" type="veh_passenger" depart="570.35" departLane="best" from="26149310" to="440710544"/>
    <trip id="veh98" type="veh_passenger" depart="576.23" departLane="best" from="-170012501#1" to="-27414767#0"/>
    <trip id="veh99" type="veh_passenger" depart="582.11" departLane="best" from="366838964" to="388006867#1"/>
    <trip id="veh100" type="veh_passenger" depart="587.99" departLane="best" from="-388006867#0" to="-25822399#0"/>
    <trip id="veh101" type="veh_passenger" depart="593.87" departLane="best" departSpeed="max" from="69353444" to="-42299170#0"/>
    <trip id="veh102" type="veh_passenger" depart="599.75" departLane="best" from="23019727#0" to="360827911#1"/>
    <trip id="veh103" type="veh_passenger" depart="605.63" departLane="best" departSpeed="max" from="26149328#0" to="718314466#0"/>
    <trip id="veh104" type="veh_passenger" depart="611.51" departLane="best" from="-314738746#1" to="393248506#4"/>
    <trip id="veh105" type="veh_passenger" depart="617.39" departLane="best" from="-388006867#1" to="170012501#2"/>
    <trip id="veh106" type="veh_passenger" depart="623.27" departLane="best" from="388006867#1" to="150254977"/>
    <trip id="veh107" type="veh_passenger" depart="629.15" departLane="best" from="150258989#4" to="393764297#2"/>
    <trip id="veh108" type="veh_passenger" depart="635.03" departLane="best" from="-162563271#1" to="24045593#1"/>
    <trip id="veh109" type="veh_passenger" depart="640.91" departLane="best" from="-162563271#1" to="-371436540#2"/>
    <trip id="veh110" type="veh_passenger" depart="646.79" departLane="best" from="-42299170#1" to="718314466#0"/>
    <trip id="veh111" type="veh_passenger" depart="652.67" departLane="best" departSpeed="max" from="69353444" to="520948065"/>
    <trip id="veh112" type="veh_passenger" depart="658.55" departLane="best" departSpeed="max" from="194714681" to="-26149326#1"/>
    <trip id="veh113" type="veh_passenger" depart="664.43" departLane="best" from="476631724" to="393248497#1"/>
    <trip id="veh114" type="veh_passenger" depart="670.31" departLane="best" from="377213301#0" to="926288976"/>
    <trip id="veh115" type="veh_passenger" depart="676.19" departLane="best" from="387488096#0" to="-150258989#3"/>
    <trip id="veh116" type="veh_passenger" depart="682.07" departLane="best" from="440710544" to="150254977"/>
    <trip id="veh117" type="veh_passenger" depart="687.95" departLane="best" from="387488098#0" to="718314466#2"/>
    <trip id="veh118" type="veh_passenger" depart="693.83" departLane="best" from="-25210189#5" to="-25822399#0"/>
    <trip id="veh119" type="veh_passenger" depart="699.71" departLane="best" departSpeed="max" from="-227341950#4" to="293867127"/>
    <trip id="veh120" type="veh_passenger" depart="705.59" departLane="best" from="-440739713#2" to="371436540#2"/>
    <trip id="veh121" type="veh_passenger" depart="711.47" departLane="best" from="381988749#1" to="-440739713#1"/>
    <trip id="veh122" type="veh_passenger" depart="717.35" departLane="best" departSpeed="max" from="26149300#0" to="683185817"/>
    <trip id="veh123" type="veh_passenger" depart="723.23" departLane="best" from="520948066" to="-25210189#10"/>
    <trip id="veh124" type="veh_passenger" depart="729.11" departLane="best" from="23019727#2" to="-718314466#4"/>
    <trip id="veh125" type="veh_passenger" depart="734.99" departLane="best" from="-150258989#2" to="393878673#1"/>
    <trip id="veh126" type="veh_passenger" depart="740.87" departLane="best" from="382224391" to="-440739713#0"/>
    <trip id="veh127" type="veh_passenger" depart="746.75" departLane="best" from="393878671#0" to="293867127"/>
    <trip id="veh128" type="veh_passenger" depart="752.63" departLane="best" from="23019752#0" to="-150258989#4"/>
    <trip id="veh129" type="veh_passenger" depart="758.51" departLane="best" from="-163993620#1" to="520948066"/>
    <trip id="veh130" type="veh_passenger" depart="764.39" departLane="best" departSpeed="max" from="69353466" to="28242822#0"/>
    <trip id="veh131" type="veh_passenger" depart="770.27" departLane="best" from="476631724" to="360827911#1"/>
    <trip id="veh132" type="veh_passenger" depart="776.15" departLane="best" departSpeed="max" from="-25691683#1" to="-25822399#2"/>
    <trip id="veh133" type="veh_passenger" depart="782.03" departLane="best" from="150258989#0" to="663774150#1"/>
    <trip id="veh135" type="veh_passenger" depart="793.79" departLane="best" departSpeed="max" from="69353461#0" to="-371436540#1"/>
    <trip id="veh136" type="veh_passenger" depart="799.67" departLane="best" from="-393249358#1" to="-25210189#7"/>
    <trip id="veh137" type="veh_passenger" depart="805.55" departLane="best" from="227337561" to="377213301#2"/>
    <trip id="veh138" type="veh_passenger" depart="811.43" departLane="best" from="-25691686#0" to="713057044"/>
    <trip id="veh139" type="veh_passenger" depart="817.31" departLane="best" from="663774150#1" to="84526823#1"/>
    <trip id="veh140" type="veh_passenger" depart="823.19" departLane="best" departSpeed="max" from="-150258989#9" to="393764293#1"/>
    <trip id="veh141" type="veh_passenger" depart="829.07" departLane="best" from="152100999" to="713057044"/>
    <trip id="veh142" type="veh_passenger" depart="834.95" departLane="best" from="440710412#1" to="443202032"/>
    <trip id="veh143" type="veh_passenger" depart="840.83" departLane="best" from="440710413#2" to="-440739713#3"/>
    <trip id="veh145" type="veh_passenger" depart="852.59" departLane="best" from="-381988749#1" to="423133516"/>
    <trip id="veh146" type="veh_passenger" depart="858.47" departLane="best" from="25691739#0" to="150254977"/>
    <trip id="veh148" type="veh_passenger" depart="870.23" departLane="best" departSpeed="max" from="-150258989#9" to="-29979508"/>
    <trip id="veh149" type="veh_passenger" depart="876.11" departLane="best" from="150258992#0" to="443202032"/>
    <trip id="veh150" type="veh_passenger" depart="881.99" departLane="best" departSpeed="max" from="87053632#0" to="-769481078"/>
    <trip id="veh151" type="veh_passenger" depart="887.87" departLane="best" from="384688158" to="188215405"/>
    <trip id="veh152" type="veh_passenger" depart="893.75" departLane="best" departSpeed="max" from="897996547" to="26149310"/>
    <trip id="veh153" type="veh_passenger" depart="899.63" departLane="best" from="780648238#0" to="-25822399#0"/>
    <trip id="veh154" type="veh_passenger" depart="905.51" departLane="best" departSpeed="max" from="87053632#0" to="-26149331"/>
    <trip id="veh155" type="veh_passenger" depart="911.39" departLane="best" from="84526823#2" to="-440739713#2"/>
    <trip id="veh156" type="veh_passenger" depart="917.27" departLane="best" from="393764297#1" to="150258989#2"/>
    <trip id="veh157" type="veh_passenger" depart="923.15" departLane="best" from="377213300" to="25691686#1"/>
    <trip id="veh158" type="veh_passenger" depart="929.03" departLane="best" from="218390407#0" to="314738746#1"/>
    <trip id="veh159" type="veh_passenger" depart="934.91" departLane="best" departSpeed="max" from="-408845038" to="393248506#0"/>
    <trip id="veh160" type="veh_passenger" depart="940.79" departLane="best" from="-150258989#0" to="69353439#7"/>
    <trip id="veh161" type="veh_passenger" depart="946.67" departLane="best" departSpeed="max" from="26149331" to="393248508"/>
    <trip id="veh162" type="veh_passenger" depart="952.55" departLane="best" from="393878671#0" to="387830973#1"/>
    <trip id="veh163" type="veh_passenger" depart="958.43" departLane="best" from="188215405" to="-223581248"/>
    <trip id="veh164" type="veh_passenger" depart="964.31" departLane="best" from="387488098#0" to="150258989#9"/>
    <trip id="veh165" type="veh_passenger" depart="970.19" departLane="best" from="150258989#3" to="440710413#2"/>
    <trip id="veh166" type="veh_passenger" depart="976.07" departLane="best" from="393248511#0" to="150254977"/>
    <trip id="veh167" type="veh_passenger" depart="981.95" departLane="best" from="150258989#0" to="194714719"/>
    <trip id="veh168" type="veh_passenger" depart="987.83" departLane="best" from="223581247#5" to="-96202384#0"/>
    <trip id="veh169" type="veh_passenger" depart="993.71" departLane="best" from="-25210189#10" to="223812322"/>
    <trip id="veh170" type="veh_passenger" depart="999.59" departLane="best" from="809062692" to="388006867#1"/>
    <trip id="veh171" type="veh_passenger" depart="1005.47" departLane="best" departSpeed="max" from="69353461#0" to="377213301#0"/>
    <trip id="veh172" type="veh_passenger" depart="1011.35" departLane="best" from="-926288976" to="28242822#2"/>
    <trip id="veh173" type="veh_passenger" depart="1017.23" departLane="best" from="-150258989#0" to="-87053632#0"/>
    <trip id="veh174" type="veh_passenger" depart="1023.11" departLane="best" from="23888931" to="338332423#0"/>
    <trip id="veh175" type="veh_passenger" depart="1028.99" departLane="best" from="387488096#1" to="24701143"/>
    <trip id="veh176" type="veh_passenger" depart="1034.87" departLane="best" from="25210189#10" to="-381988749#0"/>
    <trip id="veh177" type="veh_passenger" depart="1040.75" departLane="best" departSpeed="max" from="25822399#0" to="663774150#1"/>
    <trip id="veh179" type="veh_passenger" depart="1052.51" departLane="best" from="-170012501#3" to="25691739#0"/>
    <trip id="veh180" type="veh_passenger" depart="1058.39" departLane="best" departSpeed="max" from="381988749#0" to="150258989#9"/>
    <trip id="veh181" type="veh_passenger" depart="1064.27" departLane="best" from="440710544" to="393764297#1"/>
    <trip id="veh182" type="veh_passenger" depart="1070.15" departLane="best" from="388006867#1" to="-381988749#1"/>
    <trip id="veh183" type="veh_passenger" depart="1076.03" departLane="best" from="-388211543" to="25210189#0"/>
    <trip id="veh185" type="veh_passenger" depart="1087.79" departLane="best" from="23019717" to="382224391"/>
    <trip id="veh186" type="veh_passenger" depart="1093.67" departLane="best" departSpeed="max" from="-29979510#1" to="393248455"/>
    <trip id="veh187" type="veh_passenger" depart="1099.55" departLane="best" departSpeed="max" from="26149300#0" to="-393878678"/>
    <trip id="veh188" type="veh_passenger" depart="1105.43" departLane="best" from="387488096#1" to="-150258989#2"/>
    <trip id="veh189" type="veh_passenger" depart="1111.31" departLane="best" from="393878675" to="393878673#1"/>
    <trip id="veh190" type="veh_passenger" depart="1117.19" departLane="best" departSpeed="max" from="-227341950#4" to="227341950#0"/>
    <trip id="veh191" type="veh_passenger" depart="1123.07" departLane="best" from="-25822399#3" to="809062693"/>
    <trip id="veh192" type="veh_passenger" depart="1128.95" departLane="best" departSpeed="max" from="26149328#0" to="-223581247#0"/>
    <trip id="veh193" type="veh_passenger" depart="1134.83" departLane="best" from="-393249358#1" to="440710413#2"/>
    <trip id="veh194" type="veh_passenger" depart="1140.71" departLane="best" from="25691683#0" to="42299163#1"/>
    <trip id="veh195" type="veh_passenger" depart="1146.59" departLane="best" from="387488098#1" to="926288976"/>
    <trip id="veh196" type="veh_passenger" depart="1152.47" departLane="best" from="366838964" to="769481078"/>
    <trip id="veh197" type="veh_passenger" depart="1158.35" departLane="best" from="69353459#0" to="377213301#0"/>
    <trip id="veh198" type="veh_passenger" depart="1164.23" departLane="best" from="393248511#0" to="25691686#1"/>
    <trip id="veh199" type="veh_passenger" depart="1170.11" departLane="best" from="467392235#1" to="28242822#2"/>
    <trip id="veh201" type="veh_passenger" depart="1181.87" departLane="best" from="42299170#1" to="25822391"/>
    <trip id="veh202" type="veh_passenger" depart="1187.75" departLane="best" departSpeed="max" from="381988749#0" to="-718314466#3"/>
    <trip id="veh203" type="veh_passenger" depart="1193.63" departLane="best" from="-170012501#0" to="-87053632#0"/>
    <trip id="veh204" type="veh_passenger" depart="1199.51" departLane="best" from="-440739713#1" to="150258989#4"/>
    <trip id="veh205" type="veh_passenger" depart="1205.39" departLane="best" departSpeed="max" from="27414767#0" to="-26149300#0"/>
    <trip id="veh206" type="veh_passenger" depart="1211.27" departLane="best" departSpeed="max" from="-387830973#1" to="388280785"/>
    <trip id="veh207" type="veh_passenger" depart="1217.15" departLane="best" from="393248506#1" to="-223581247#4"/>
    <trip id="veh208" type="veh_passenger" depart="1223.03" departLane="best" from="227337561" to="26149328#2"/>
    <trip id="veh209" type="veh_passenger" depart="1228.91" departLane="best" from="23019717" to="-364154088#1"/>
    <trip id="veh210" type="veh_passenger" depart="1234.79" departLane="best" from="23019727#1" to="683185817"/>
    <trip id="veh211" type="veh_passenger" depart="1240.67" departLane="best" from="360827911#3" to="393248455"/>
    <trip id="veh212" type="veh_passenger" depart="1246.55" departLane="best" from="194714712" to="-150258989#2"/>
    <trip id="veh213" type="veh_passenger" depart="1252.43" departLane="best" from="163993620#1" to="393764297#3"/>
    <trip id="veh214" type="veh_passenger" depart="1258.31" departLane="best" from="23019727#0" to="393764293#1"/>
    <trip id="veh215" type="veh_passenger" depart="1264.19" departLane="best" departSpeed="max" from="27414767#0" to="371436540#1"/>
    <trip id="veh216" type="veh_passenger" depart="1270.07" departLane="best" from="24667797" to="-163993620#0"/>
    <trip id="veh217" type="veh_passenger" depart="1275.95" departLane="best" from="154986375" to="388006867#3"/>
    <trip id="veh218" type="veh_passenger" depart="1281.83" departLane="best" from="223812322" to="-26149328#0"/>
    <trip id="veh219" type="veh_passenger" depart="1287.71" departLane="best" from="377213302" to="-162563271#1"/>
    <trip id="veh220" type="veh_passenger" depart="1293.59" departLane="best" departSpeed="max" from="223581247#0" to="29979510#1"/>
    <trip id="veh221" type="veh_passenger" depart="1299.47" departLane="best" departSpeed="max" from="-150258989#9" to="385080086#1"/>
    <trip id="veh222" type="veh_passenger" depart="1305.35" departLane="best" from="-25210189#6" to="24667797"/>
    <trip id="veh223" type="veh_passenger" depart="1311.23" departLane="best" departSpeed="max" from="-150258991" to="152100999"/>
    <trip id="veh224" type="veh_passenger" depart="1317.11" departLane="best" from="-364154088#0" to="150258989#8"/>
    <trip id="veh225" type="veh_passenger" depart="1322.99" departLane="best" from="42299166#0" to="152100999"/>
    <trip id="veh226" type="veh_passenger" depart="1328.87" departLane="best" from="393878675" to="426538581#2"/>
    <trip id="veh227" type="veh_passenger" depart="1334.75" departLane="best" departSpeed="max" from="-408845038" to="-227341950#1"/>
    <trip id="veh228" type="veh_passenger" depart="1340.63" departLane="best" from="-150258989#8" to="26149326#1"/>
    <trip id="veh229" type="veh_passenger" depart="1346.51" departLane="best" from="96202384#1" to="150258990"/>
    <trip id="veh230" type="veh_passenger" depart="1352.39" departLane="best" from="385080086#1" to="408845038"/>
    <trip id="veh231" type="veh_passenger" depart="1358.27" departLane="best" from="387488096#0" to="393764297#3"/>
    <trip id="veh232" type="veh_passenger" depart="1364.15" departLane="best" from="84526771#1" to="-360827911#1"/>
    <trip id="veh233" type="veh_passenger" depart="1370.03" departLane="best" from="-150258989#8" to="-26149326#0"/>
    <trip id="veh234" type="veh_passenger" depart="1375.91" departLane="best" from="-25210189#0" to="387830973#1"/>
    <trip id="veh235" type="veh_passenger" depart="1381.79" departLane="best" from="313843749#1" to="-381988749#0"/>
    <trip id="veh236" type="veh_passenger" depart="1387.67" departLane="best" from="393248497#1" to="393878671#1"/>
    <trip id="veh237" type="veh_passenger" depart="1393.55" departLane="best" from="-25691739#1" to="375371401"/>
    <trip id="veh238" type="veh_passenger" depart="1399.43" departLane="best" from="440739713#0" to="84526771#1"/>
    <trip id="veh239" type="veh_passenger" depart="1405.31" departLane="best" departSpeed="max" from="-227341950#4" to="-162563271#0"/>
    <trip id="veh240" type="veh_passenger" depart="1411.19" departLane="best" from="84526822#1" to="170012501#2"/>
    <trip id="veh241" type="veh_passenger" depart="1417.07" departLane="best" from="393248508" to="-223581248"/>
    <trip id="veh242" type="veh_passenger" depart="1422.95" departLane="best" departSpeed="max" from="-227341950#4" to="393878673#1"/>
    <trip id="veh243" type="veh_passenger" depart="1428.83" departLane="best" from="561267720" to="366838964"/>
    <trip id="veh244" type="veh_passenger" depart="1434.71" departLane="best" from="426538581#1" to="150258990"/>
    <trip id="veh245" type="veh_passenger" depart="1440.59" departLane="best" from="23888931" to="150258992#2"/>
    <trip id="veh246" type="veh_passenger" depart="1446.47" departLane="best" departSpeed="max" from="26149326#0" to="150258989#9"/>
    <trip id="veh247" type="veh_passenger" depart="1452.35" departLane="best" departSpeed="max" from="-227341950#4" to="84526771#0"/>
    <trip id="veh248" type="veh_passenger" depart="1458.23" departLane="best" from="382224391" to="426538581#0"/>
    <trip id="veh249" type="veh_passenger" depart="1464.11" departLane="best" from="393248506#1" to="227341950#4"/>
    <trip id="veh250" type="veh_passenger" depart="1469.98" departLane="best" from="393764300#0" to="84526771#1"/>
    <trip id="veh251" type="veh_passenger" depart="1475.86" departLane="best" from="-440739713#0" to="42299166#0"/>
    <trip id="veh252" type="veh_passenger" depart="1481.74" departLane="best" departSpeed="max" from="26149331" to="25210189#5"/>
    <trip id="veh253" type="veh_passenger" depart="1487.62" departLane="best" from="24667797" to="393764293#1"/>
    <trip id="veh254" type="veh_passenger" depart="1493.50" departLane="best" from="-440739713#0" to="440710413#3"/>
    <trip id="veh255" type="veh_passenger" depart="1499.38" departLane="best" from="467392235#1" to="-24045593#0"/>