<?xml version="1.0" encoding="UTF-8"?>

<!-- generated on 11/08/21 15:43:53 by Eclipse SUMO netconvert Version 1.8.0
<configuration xmlns:xsi="http://www.w3.org/2001/XMLSchema-instance" xsi:noNamespaceSchemaLocation="http://sumo.dlr.de/xsd/netconvertConfiguration.xsd">

    <input>
        <type-files value="C:\Users\faisa\Downloads\sumo-1.8.0\data\typemap\osmNetconvert.typ.xml,C:\Users\faisa\Downloads\sumo-1.8.0\data\typemap\osmNetconvertUrbanDe.typ.xml,C:\Users\faisa\Downloads\sumo-1.8.0\data\typemap\osmNetconvertPedestrians.typ.xml,C:\Users\faisa\Downloads\sumo-1.8.0\data\typemap\osmNetconvertBicycle.typ.xml"/>
        <osm-files value="osm_bbox.osm.xml"/>
    </input>

    <output>
        <output-file value="osm.net.xml"/>
        <output.street-names value="true"/>
        <output.original-names value="true"/>
        <ptstop-output value="osm_stops.add.xml"/>
        <ptline-output value="osm_ptlines.xml"/>
    </output>

    <projection>
        <proj.utm value="true"/>
    </projection>

    <processing>
        <geometry.remove value="true"/>
        <roundabouts.guess value="true"/>
    </processing>

    <tls_building>
        <tls.discard-simple value="true"/>
        <tls.join value="true"/>
        <tls.guess-signals value="true"/>
        <tls.default-type value="actuated"/>
    </tls_building>

    <ramp_guessing>
        <ramps.guess value="true"/>
    </ramp_guessing>

    <junctions>
        <junctions.join value="true"/>
        <junctions.corner-detail value="5"/>
    </junctions>

    <pedestrian>
        <crossings.guess value="true"/>
    </pedestrian>

    <railway>
        <railway.topology.repair value="true"/>
        <railway.topology.repair.stop-turn value="true"/>
    </railway>

    <report>
        <verbose value="true"/>
        <aggregate-warnings value="5"/>
    </report>

</configuration>
-->

<additional xmlns:xsi="http://www.w3.org/2001/XMLSchema-instance" xsi:noNamespaceSchemaLocation="http://sumo.dlr.de/xsd/additional_file.xsd">
    <busStop id="-1115018375" name="Belvaux, Brill" lane="-223581247#0_1" startPos="13.71" endPos="28.71" friendlyPos="true" lines="204 1 2 325"/>
    <busStop id="-1631828670" name="Esch, Rue des Tramways" lane="-150258989#6_2" startPos="7.95" endPos="22.95" friendlyPos="true" lines="2"/>
    <busStop id="-1649300091" name="Esch, Rue Henri Koch" lane="-25210189#4_1" startPos="6.17" endPos="21.17" friendlyPos="true" lines="332 7"/>
    <busStop id="-2360364949" name="Belvaux, Um Bedding" lane="-408845038_1" startPos="134.95" endPos="146.91" friendlyPos="true" lines="306 309 15"/>
    <busStop id="-2360364949@8360118" name="Belvaux, Um Bedding" lane="-360827911#3_1" startPos="0.00" endPos="7.50" friendlyPos="true" lines="332"/>
    <busStop id="-4408239875" name="Belvaux, Um Bedding" lane="-360827911#3_1" startPos="0.00" endPos="7.50" friendlyPos="true" lines="306 332 309 15"/>
    <busStop id="-6212933651" name="Esch/Alzette, Porte des Sciences" lane="-227338318#0_0" startPos="2.95" endPos="17.95" friendlyPos="true" lines="306 7 309 15"/>
    <busStop id="-6212933654" name="Esch/Alzette, Porte des Sciences" lane="-227338318#0_0" startPos="2.81" endPos="17.81" friendlyPos="true" lines="306 7 309 15"/>
    <busStop id="-8528731983" name="Belvaux, Brill" lane="-223581247#0_1" startPos="22.43" endPos="37.43" friendlyPos="true" lines="204"/>
    <busStop id="-8528731986" name="Belvaux, Roudewee" lane="-223581247#0_1" startPos="405.12" endPos="420.12" friendlyPos="true" lines="204"/>
    <busStop id="1115018384" name="Esch, Raemerich" lane="366838964_1" startPos="38.49" endPos="53.49" friendlyPos="true" lines="4 202 325 7 1 2"/>
    <busStop id="1115018437" name="Esch, Raemerich" lane="393248497#0_1" startPos="0.00" endPos="14.13" friendlyPos="true" lines="204 1 2 202 325 7 15"/>
    <busStop id="1115018462" name="Belvaux, Brill" lane="223581247#3_1" startPos="12.88" endPos="27.88" friendlyPos="true" lines="325 1 2"/>
    <busStop id="1625279566" name="Esch/Alzette, Porte de France" lane="393764297#1_1" startPos="43.63" endPos="58.63" friendlyPos="true" lines="4 306 332 7 309"/>
    <busStop id="1631828668" name="Esch, Rue des Tramways" lane="150258989#5_2" startPos="0.00" endPos="9.80" friendlyPos="true" lines="4 2"/>
    <busStop id="2324610278" name="Belvaux, Brill" lane="223581247#3_1" startPos="10.59" endPos="25.59" friendlyPos="true"/>
    <busStop id="3914930752" name="Esch, Raemerich" lane="366838964_1" startPos="37.77" endPos="52.77" friendlyPos="true" lines="202"/>
    <busStop id="3968040959" name="Esch/Alzette, Cité des Sciences" lane="227337561_1" startPos="0.00" endPos="7.95" friendlyPos="true" lines="332"/>
    <busStop id="3968109962" name="Esch/Alzette, Cité des Sciences" lane="69353459#0_1" startPos="0.00" endPos="8.67" friendlyPos="true" lines="332"/>
    <busStop id="4107535818" name="Esch/Alzette, Porte de France" lane="338332423#0_1" startPos="6.65" endPos="21.65" friendlyPos="true" lines="306 332 309"/>
    <busStop id="4107543803" name="Belvaux, Um Bedding" lane="360827911#3_1" startPos="10.31" endPos="17.86" friendlyPos="true" lines="306 332 309"/>
    <busStop id="4248491038" name="Esch/Alzette, Cité des Sciences" lane="69353459#0_1" startPos="0.00" endPos="7.50" friendlyPos="true" lines="332"/>
    <busStop id="4248491039" name="Esch/Alzette, Cité des Sciences" lane="227337561_1" startPos="0.00" endPos="7.50" friendlyPos="true" lines="332"/>
    <busStop id="4408239877" name="Esch/Alzette, Porte de France" lane="338332423#0_1" startPos="21.83" endPos="36.83" friendlyPos="true" lines="306 332 309"/>
    <busStop id="4408239878" name="Esch/Alzette, Porte de France" lane="393764297#1_1" startPos="45.78" endPos="60.78" friendlyPos="true" lines="4 306 332 7 309"/>
    <busStop id="4464473490" name="Esch, Tramschapp" lane="388006867#1_1" startPos="91.49" endPos="106.49" friendlyPos="true" lines="1 2 321 15"/>
    <busStop id="5146079337" name="Esch, Tramschapp" lane="23019727#1_1" startPos="27.80" endPos="42.80" friendlyPos="true" lines="4 321 1 2"/>
    <busStop id="5670312476" name="Esch, Rue Henri Koch" lane="25210189#5_1" startPos="1.77" endPos="10.86" friendlyPos="true" lines="332 7"/>
    <busStop id="6212933652" name="Esch/Alzette, Porte des Sciences" lane="393596508#0_0" startPos="33.66" endPos="46.69" friendlyPos="true" lines="4 306 7 309"/>
    <busStop id="6212933653" name="Esch/Alzette, Porte des Sciences" lane="393596508#0_0" startPos="34.28" endPos="46.69" friendlyPos="true" lines="4 306 7 309"/>
    <busStop id="8528041097" name="Esch, Lycée Guillaume Kroll" lane="25210189#4_1" startPos="114.96" endPos="129.96" friendlyPos="true" lines="308"/>
    <busStop id="8528041099" name="Esch, Lycée Guillaume Kroll" lane="25210189#4_1" startPos="114.65" endPos="129.65" friendlyPos="true" lines="308"/>
    <busStop id="8528731981" name="Esch, Raemerich" lane="393248497#0_1" startPos="0.42" endPos="15.42" friendlyPos="true" lines="204 202"/>
    <busStop id="8528731985" name="Belvaux, Roudewee" lane="223581247#0_1" startPos="91.21" endPos="106.21" friendlyPos="true" lines="204 203"/>
    <busStop id="9107699358" name="Esch, Cité Verte" lane="382224391_1" startPos="0.00" endPos="7.50" friendlyPos="true" lines="203"/>
</additional>
