<?xml version="1.0" encoding="UTF-8"?>

<!-- generated on 11/08/21 15:43:58 by Eclipse SUMO duarouter Version 1.8.0
<configuration xmlns:xsi="http://www.w3.org/2001/XMLSchema-instance" xsi:noNamespaceSchemaLocation="http://sumo.dlr.de/xsd/duarouterConfiguration.xsd">

    <input>
        <net-file value="C:\Users\faisa\Downloads\sumo-1.8.0\tools\2021-11-08-15-43-45\osm.net.xml"/>
        <route-files value="C:\Users\faisa\Downloads\sumo-1.8.0\tools\2021-11-08-15-43-45\osm.bicycle.trips.xml"/>
    </input>

    <output>
        <output-file value="routes.rou.xml"/>
        <alternatives-output value="routes.rou.alt.xml"/>
    </output>

    <time>
        <begin value="0"/>
        <end value="3600"/>
    </time>

    <report>
        <no-warnings value="true"/>
        <ignore-errors value="true"/>
        <no-step-log value="true"/>
    </report>

</configuration>
-->

<routes xmlns:xsi="http://www.w3.org/2001/XMLSchema-instance" xsi:noNamespaceSchemaLocation="http://sumo.dlr.de/xsd/routes_file.xsd">
    <vType id="bike_bicycle" vClass="bicycle"/>
    <vehicle id="bike0" type="bike_bicycle" depart="0.00" departLane="best">
        <route edges="387488096#1 520948065 387488097#1 387488097#2 -393907860#2 -393907860#1 -393907860#0 -996115426 393907870#0 393907857 -926288976 -785709733#0 -164439327"/>
    </vehicle>
    <vehicle id="bike1" type="bike_bicycle" depart="7.07" departLane="best">
        <route edges="-447857316#4 -447857317 -447857315#6 -447857309#0 -162561738#1 -360827911#1 393764297#1 393764297#2 393764297#3 393764300#0 393764300#1 393764300#2 393764300#3 425555630#2 227337561 426538581#0 426538581#1 426538581#2 366838967 364154088#0 -393984894"/>
    </vehicle>
    <vehicle id="bike2" type="bike_bicycle" depart="14.13" departLane="best">
        <route edges="394318370#4 38903574#6 25210189#6 25210189#7 25210189#8 25210189#10 152100999 594713490 443202032 377213301#0 377213301#1 377213301#2 23019717 393248497#0 393248497#1"/>
    </vehicle>
    <vehicle id="bike3" type="bike_bicycle" depart="21.20" departLane="best">
        <route edges="69357521#4 778911445 -753393310#0 -69357521#4 -69357521#3 646044314#2 393764300#3 425555630#2 227337561 426538581#0 426538581#1 426538581#2 423133516 423133512 28246185 194714719 440710413#0 440710413#1 393248511#0 468755769#1 468755769#2 468755769#3 -958944692#2 -958944692#1 -479037380#1 -479037380#0 393249358#0 393249358#1 170012501#0 170012501#1 170012501#2 170012501#3 -26149300#1 -26149300#0"/>
    </vehicle>
    <vehicle id="bike4" type="bike_bicycle" depart="28.26" departLane="best">
        <route edges="150258989#5 150258992#0 -150258992#0 -150258989#5 -150258989#4 -150258989#3 -150258989#2 314738746#1 -388006888#5 96202384#1 388006867#1 388006867#3 388211543 73204671#0 73204671#1 393248455 385079851 388040068 594713490 443202032 377213301#0 26149310 -26149300#2 -170012501#3"/>
    </vehicle>
    <vehicle id="bike5" type="bike_bicycle" depart="35.33" departLane="best">
        <route edges="-393878678 -24045593#1 24045593#1 393878678 96202384#0 96202384#1 388006867#1 388006867#3 388211543 73204671#0 73204671#1 393248455 385079851 388040068 594713490 443202032 377213301#0 377213301#1 377213301#2 23019717 393248497#0 393248497#1 393248497#2 251421193#0 393878673#0 393878673#1 440710544 84526771#0 84526771#1 96202364#0 96202364#1 -223581247#5 -223581247#4 -223581247#3 -223581247#2 25691683#0 25691683#1"/>
    </vehicle>
    <vehicle id="bike6" type="bike_bicycle" depart="42.39" departLane="best">
        <route edges="-163993620#1 -163993620#0 163993620#0 163993620#1 163993620#2 -360827911#1 393764297#1 393764297#2 393764297#3 393764300#0 393764300#1 393764300#2 393764300#3 425555630#2 227337561 426538581#0 426538581#1 426538581#2 366838967 364154088#0 364154088#1 -394472053#2 -394472053#1 -393613650#0"/>
    </vehicle>
    <vehicle id="bike7" type="bike_bicycle" depart="49.46" departLane="best">
        <route edges="388006888#0 -388006888#0 -260980642#1 388006887 178404413#1 178404413#2 393248438#1 393248489#1 393248489#2 393248489#3 393248497#1 479037380#0 479037380#1 313843749#1"/>
    </vehicle>
    <vehicle id="bike8" type="bike_bicycle" depart="56.52" departLane="best">
        <route edges="-393907860#0 -996115426 393907870#0 393907870#1 387488096#0 387488096#1 520948066 393248508 393248511#0 393248511#1 375371401 313843749#1 96198633#1 -96198629#0 -377213305 -96198635 28242822#2 188215405 385080086#0 385080086#1 377213300"/>
    </vehicle>
    <vehicle id="bike9" type="bike_bicycle" depart="63.59" departLane="best">
        <route edges="468755769#2 -468755769#2 -468755769#1 393248511#1 375371401 313843749#1 313843749#2 313843749#3 366838964 388280785 377213302 23888931 23019727#0 23019727#1 23019727#2 -388211543 -388006867#3 -388006867#1 -388006867#0 -96202384#0 -393878678 -24045593#1 -24045593#0 821216382#0 821216382#1 821216382#2 -150258989#8"/>
    </vehicle>
    <vehicle id="bike10" type="bike_bicycle" depart="70.65" departLane="best">
        <route edges="467392235#1 425555627#0 425555627#1 69353459#0 -227338318#2 -227338318#1 -227338318#0 393835185 663774150#0 663774150#1 663774150#2 338332423#0 393764293#1"/>
    </vehicle>
    <vehicle id="bike11" type="bike_bicycle" depart="77.72" departLane="best">
        <route edges="-718314466#0 718314465 426538581#2 366838967 364154088#0 364154088#1 364154088#2 188215405 385080086#0 385080086#1 377213300 23888931 388280781 385079851 152101003 -25210189#10 384709893#1 384709893#2 -385152953 -385152952#0 -384709893#7"/>
    </vehicle>
    <vehicle id="bike12" type="bike_bicycle" depart="84.78" departLane="best">
        <route edges="93359176#1 93359176#2 93359213#1 93359213#2 93359213#4 93359213#5 364154091 -371436540#2 218390407#0 385080086#0 385080086#1 377213300 23888931 388280781 385079851 388040068 594713490 443202032 377213301#0 377213301#1 377213301#2 23019717 393248497#0 393248497#1 393248497#2 251421193#0 393248506#0 393248506#1 393248506#2 393248506#3 393248506#4 -393907860#2 479037374#0 479037374#1 -69357521#3"/>
    </vehicle>
    <vehicle id="bike13" type="bike_bicycle" depart="91.85" departLane="best">
        <route edges="-293306711#1 -293306711#0 -377103315 -69353456#1 -479118884 393907870#1 387488096#0 387488096#1 520948066 393248508 393248511#0 468755769#1 468755769#2 468755769#3 -958944692#2 -958944692#1 -479037380#1 -479037380#0 393249358#0 393249358#1 -26149326#1 -26149328#2"/>
    </vehicle>
    <vehicle id="bike14" type="bike_bicycle" depart="98.91" departLane="best">
        <route edges="552900619#3 -552900619#3 -552900620 -552900619#0 -162561738#1 -360827911#1 393764297#1 393764297#2 393764297#3 393764300#0 393764300#1 393764300#2 393764300#3 425555630#2 227337561 426538581#0 426538581#1 426538581#2 423133516 423133512 28246185 194714719 440710413#0 440710413#1 440710413#2 440710413#3 440710544 84526823#0 84526823#1 84526823#2 387830973#0 377625717#3"/>
    </vehicle>
    <vehicle id="bike15" type="bike_bicycle" depart="105.98" departLane="best">
        <route edges="468755769#0 393248511#1 375371401 313843749#1 313843749#2 313843749#3 366838964 388280785 377213302 23888931 23019727#0 23019727#1 23019727#2 -388211543 -388006867#3 -388006867#1 -388006867#0 -96202384#0 -393878678 -24045593#1 24045593#1 393878678"/>
    </vehicle>
    <vehicle id="bike16" type="bike_bicycle" depart="113.04" departLane="best">
        <route edges="26149328#2 26149326#1 -393249358#1 -393249358#0 393248497#2 251421193#0 958944692#2 958944692#3"/>
    </vehicle>
    <vehicle id="bike17" type="bike_bicycle" depart="120.11" departLane="best">
        <route edges="-93359213#2 93359213#2 93359213#4 93359213#5 93359206 371436527#0 371436527#1 -364154095 377213295 326522373#0 326522373#1"/>
    </vehicle>
    <vehicle id="bike18" type="bike_bicycle" depart="127.17" departLane="best">
        <route edges="479037391 393764343#11 393764343#12 393764343#13 393764343#14 -339708929 -718314466#2 -718314466#1 393984894 364154088#1 364154088#2 188215405 385080086#0 385080086#1 377213300 23888931 388280781 385079851 152101003 -25210189#10 958949610#1 384709895#1"/>
    </vehicle>
    <vehicle id="bike19" type="bike_bicycle" depart="134.24" departLane="best">
        <route edges="575525395#2 575525395#3 575525393#2 688177213#0 388006867#3 223813241 377213295 377213297#1 371436535 371436536"/>
    </vehicle>
    <vehicle id="bike20" type="bike_bicycle" depart="141.30" departLane="best">
        <route edges="393764343#1 393764343#3 393764343#5 479037392 -393764343#11 -393764343#10 479037390#1 718314466#4 -223812322"/>
    </vehicle>
    <vehicle id="bike21" type="bike_bicycle" depart="148.37" departLane="best">
        <route edges="-394318370#3 394318370#3 25210189#5 25210189#6 25210189#7 25210189#8 25210189#10 152100999 594713490 443202032 377213301#0 377213301#1 377213301#2 393878675 388280785 28242822#0 28242822#1 96198635 377213305 96198629#0 96198630#0 479037383#1 479037383#2 479037381 -479037381"/>
    </vehicle>
    <vehicle id="bike22" type="bike_bicycle" depart="155.43" departLane="best">
        <route edges="-25822399#3 25822399#3 25822399#4 -479037380#1 -479037380#0 393249358#0 393249358#1 170012501#0 170012501#1 170012501#2 170012501#3 -26149300#1 -395255399#0 -395255399#1"/>
    </vehicle>
    <vehicle id="bike23" type="bike_bicycle" depart="162.50" departLane="best" departSpeed="max">
        <route edges="-303055946#2 -303055946#1 393835202 -93359226#0 364154097#1 93359213#1 93359213#2 93359213#4 93359213#5 364154091 -371436540#2 218390407#0 385080086#0 385080086#1 377213300 23888931 388280781 385079851 388040068 594713490 443202032 377213301#0 377213301#1 377213301#2 23019717 393248497#0 393248497#1 393248497#2 251421193#0 393248506#0 -468755769#1"/>
    </vehicle>
    <vehicle id="bike24" type="bike_bicycle" depart="169.56" departLane="best">
        <route edges="385152954#0 -385152954#0 385152952#3 -384709893#1 25210189#10 152100999 594713490 443202032 377213301#0 377213301#1 377213301#2 23019717 393248497#0 393248497#1 393248497#2 251421193#0 393878673#0 393878673#1 440710544 84526771#0 84526771#1 96202364#0 96202364#1 -223581247#5 -223581247#4 -223581247#3 -223581247#2 25691739#0 25691739#1 -926288976 785709733#1 -785709733#1"/>
    </vehicle>
    <vehicle id="bike25" type="bike_bicycle" depart="176.63" departLane="best" departSpeed="max">
        <route edges="-926271735 -164439325#0 -43661121#1 -785709733#1 926288976 -479118884 -393907870#0 996115426 393907860#0 393907860#1 393907860#2 194714712 809062693 809062692 393878671#0 393878671#1 467392235#1 426538578 426538581#0 393984892 718314466#0 718314466#1 718314466#2 339708929 -393764343#14"/>
    </vehicle>
    <vehicle id="bike26" type="bike_bicycle" depart="183.69" departLane="best">
        <route edges="-447857315#2 447857315#2 447857315#3 447857315#4 447857315#5 -447857309#0 -162561738#1 -360827911#1 393764297#1 393764297#2 393764297#3 393764300#0 393764300#1 393764300#2 393764300#3 425555630#2 227337561 426538581#0 426538581#1 426538581#2 366838967 364154088#0 364154088#1 364154088#2 188215405 385080086#0 385080086#1 188215407 23019727#1 23019727#2 -388211543 -388006867#3 -388006867#1 -388006867#0 -96202384#0 -393878678 -24045593#1 -24045593#0 821216382#0 821216382#1"/>
    </vehicle>
    <vehicle id="bike27" type="bike_bicycle" depart="190.76" departLane="best">
        <route edges="388006887 -178404413#0 -260980642#0 -958949617 -25210189#8 -25210189#7 -25210189#6 -25210189#5 -25210189#4 -25210189#2 -25210189#0 382420753 24667797 382224391 384688158"/>
    </vehicle>
    <vehicle id="bike28" type="bike_bicycle" depart="197.82" departLane="best">
        <route edges="-388006888#1 388006888#1 388006867#3 388211543 73204671#0 73204671#1 393248455 385079851 388040068 594713490 443202032 377213301#0 377213301#1 377213301#2 393878675"/>
    </vehicle>
    <vehicle id="bike29" type="bike_bicycle" depart="204.89" departLane="best" departSpeed="max">
        <route edges="-385152956 -384709893#5 -384709893#4 -384709893#3 -384709893#2 -384709893#1 25210189#10 152100999 594713490 443202032 377213301#0 377213301#1 377213301#2 393878675 388280785 28242822#0 28242822#1 28242822#2 371436540#1 371436540#2 -364154091 -93359213#5 -93359213#4 -93359213#2"/>
    </vehicle>
    <vehicle id="bike30" type="bike_bicycle" depart="211.95" departLane="best">
        <route edges="96198634#0 96198634#1 -96198629#1 96198630#0 479037383#1 479037383#2 479037381 -393613650#2 958944829#0 958944829#1 958944829#2 958944829#3 393248506#4 -393907860#2 -393907860#1 -393907860#0 -996115426 393907870#0 393907870#1 387488097#0"/>
    </vehicle>
    <vehicle id="bike31" type="bike_bicycle" depart="219.02" departLane="best">
        <route edges="313843749#2 313843749#3 366838964 388280785 377213302 23888931 388280781 385079851 388040068 594713490 443202032 377213301#0 377213301#1 377213301#2 23019717 393248497#0 393248497#1 393248497#2 251421193#0 393248506#0 393248506#1 393248506#2 393248508"/>
    </vehicle>
    <vehicle id="bike32" type="bike_bicycle" depart="226.08" departLane="best" departSpeed="max">
        <route edges="533269775 -440739713#3 -440739713#2 440739713#2"/>
    </vehicle>
    <vehicle id="bike33" type="bike_bicycle" depart="233.15" departLane="best">
        <route edges="-394318370#4 -25210189#4 -25210189#2 -176013775"/>
    </vehicle>
    <vehicle id="bike34" type="bike_bicycle" depart="240.21" departLane="best">
        <route edges="-552900619#4 -552900619#3 -552900620 -552900619#0 447857309#0 -447857315#5"/>
    </vehicle>
    <vehicle id="bike35" type="bike_bicycle" depart="247.28" departLane="best">
        <route edges="-393764343#14 393764343#14 -339708929 -718314466#2 -718314466#1 -718314466#0 718314465 426538581#2 423133516 423133512 28246185 194714719 440710413#0 440710413#1 440710413#2 440710413#3 440710544 84526823#0 84526823#1 84526823#2 387830973#0 -387830973#0 84526820#0 84526820#1"/>
    </vehicle>
    <vehicle id="bike36" type="bike_bicycle" depart="254.34" departLane="best">
        <route edges="69353439#1 69353439#2 69353439#6 69353439#7 663774150#0 663774150#1 663774150#2 338332423#0 360827911#1 162561738#1 552900619#0 552900620 -552900620"/>
    </vehicle>
    <vehicle id="bike37" type="bike_bicycle" depart="261.41" departLane="best">
        <route edges="388211543 73204671#0 73204671#1 393248455 385079851 152101003 -25210189#10 -25210189#8 958949610#2 -958949610#2"/>
    </vehicle>
    <vehicle id="bike38" type="bike_bicycle" depart="268.47" departLane="best">
        <route edges="772693129#0 772693129#1 772693129#2 772693129#3 772693129#4 772693129#6 -38903574#1 394318370#2 394318370#3 25210189#5 25210189#6 25210189#7 25210189#8 25210189#10 152100999 594713490 443202032 377213301#0 377213301#1 377213301#2 23019717 393248497#0 393248497#1 393248497#2 251421193#0 393248506#0 393248506#1 393248506#2 393248506#3 393248506#4 194714712 809062693 809062692 393878671#0 393878671#1 467392235#1 425555627#0 425555627#1 69353459#0 -210939720#1 210939720#1"/>
    </vehicle>
    <vehicle id="bike39" type="bike_bicycle" depart="275.54" departLane="best">
        <route edges="-447857315#0 -447857309#8 -447857309#7 -447857309#6 -447857309#5 -447857309#4 -447857309#3"/>
    </vehicle>
    <vehicle id="bike40" type="bike_bicycle" depart="282.60" departLane="best">
        <route edges="326522373#1 371436535 371436536 377213300 23888931 388280781 385079851 388040068 594713490 443202032 377213301#0 377213301#1 377213301#2 23019717 393248497#0 393248497#1 393248497#2 251421193#0 393248506#0 393248506#1 393248506#2 393248506#3 393248506#4 194714712 809062693 780648238#0 476631724 570972282#0 69353439#6 69353439#7 663774150#0 663774150#1 663774150#2 338332423#0 360827911#1 162561738#1 447857309#0 -447857315#5 -447857315#4 -447857315#3 -447857315#2 -447857315#1 -447857315#0"/>
    </vehicle>
    <vehicle id="bike41" type="bike_bicycle" depart="289.67" departLane="best">
        <route edges="371436536 377213300 23888931 388280781 385079851 388040068 594713490 443202032 377213301#0 377213301#1 377213301#2 393878675 388280785 28242822#0 28242822#1 28242822#2 -364154088#2 -364154088#1 -393984894 718314466#1 718314466#2 718314466#3 718314466#4 -223812322 42299170#0 42299170#1 713057044"/>
    </vehicle>
    <vehicle id="bike42" type="bike_bicycle" depart="296.73" departLane="best">
        <route edges="-958944829#2 958944829#2 958944829#3 393248506#4 -393907860#2 -393907860#1"/>
    </vehicle>
    <vehicle id="bike43" type="bike_bicycle" depart="303.80" departLane="best">
        <route edges="996115426 -996115426 393907870#0 393907857 -25691739#1 -25691739#0 25691739#0"/>
    </vehicle>
    <vehicle id="bike44" type="bike_bicycle" depart="310.86" departLane="best">
        <route edges="-293306710 293306710 -69353456#1 -479118884 393907870#1 387488096#0 387488096#1 520948066 393248508 393248511#0 393248511#1 375371401 313843749#1 96198633#1 -96198629#0 -377213305 -96198635 28242822#2 371436540#1 371436540#2 -364154091 -93359213#5 -93359213#4 -223813239"/>
    </vehicle>
    <vehicle id="bike45" type="bike_bicycle" depart="317.93" departLane="best">
        <route edges="-364154088#0 364154088#0 364154088#1 364154088#2 188215405 385080086#0 385080086#1 377213300 23888931 388280781 385079851 152101003 -25210189#10 384709893#1 384709893#2 384709893#3 384709893#4 -385152951 385152951"/>
    </vehicle>
    <vehicle id="bike46" type="bike_bicycle" depart="324.99" departLane="best">
        <route edges="447857315#0 447857315#1 447857315#2 447857315#3 447857315#4 447857315#5 -447857309#0 -162561738#1 -360827911#1 393764297#1 393764297#2 393764297#3 393764300#0 393764300#1 393764300#2 393764300#3 425555630#2 227337561 426538581#0 426538581#1 426538581#2 366838967 364154088#0 364154088#1 364154088#2 188215405 385080086#0 385080086#1 188215407 23019727#1 23019727#2 -388211543 -388006867#3 -388006867#1 -388006867#0 388006888#5 -314738746#1 150258989#2 150258989#3 150258989#4 150258989#5 150258992#0 150258990"/>
    </vehicle>
    <vehicle id="bike47" type="bike_bicycle" depart="332.06" departLane="best">
        <route edges="-25210189#4 25210189#4 25210189#5 25210189#6 25210189#7 25210189#8 25210189#10 152100999 594713490 443202032 377213301#0 377213301#1 377213301#2 393878675 388280785 28242822#0 28242822#1 28242822#2 371436540#1 371436540#2 -364154091 -93359213#5"/>
    </vehicle>
    <vehicle id="bike48" type="bike_bicycle" depart="339.12" departLane="best">
        <route edges="96202384#1 388006867#1 388006867#3 388211543 73204671#0 73204671#1 393248455 385079851 388040068 594713490 443202032 377213301#0 377213301#1 377213301#2 393878675 388280785 28242822#0 28242822#1 28242822#2"/>
    </vehicle>
    <vehicle id="bike49" type="bike_bicycle" depart="346.19" departLane="best">
        <route edges="958944829#0 958944829#1 958944829#2 958944829#3 393248506#4 194714712 809062693 780648238#0 476631724 570972282#0"/>
    </vehicle>
    <vehicle id="bike50" type="bike_bicycle" depart="353.25" departLane="best" departSpeed="max">
        <route edges="-150258991 -150258992#1 -150258992#0 -150258989#5 -150258989#4 -150258989#3 -150258989#2 314738746#1 -388006888#5 96202384#1 388006867#1 388006867#3 388211543 73204671#0 73204671#1 393248455 385079851 388040068 594713490 443202032 377213301#0 377213301#1 377213301#2 393878675 388280785 28242822#0 28242822#1 28242822#2 -364154088#2 -364154088#1 -393984894 718314466#1 718314466#2 718314466#3 -479037390#1 -479037390#0 -393764343#8 393764343#8"/>
    </vehicle>
    <vehicle id="bike51" type="bike_bicycle" depart="360.32" departLane="best">
        <route edges="393248506#4 194714712 809062693 809062692 393878671#0 393878671#1 467392235#1 426538578 426538581#0 426538581#1 426538581#2 366838967 364154088#0 364154088#1 364154088#2 188215405 385080086#0 385080086#1 188215407 23019727#1 23019727#2 -388211543 -388006867#3 -388006867#1 -388006867#0 388006888#5 -314738746#1 150258989#2 -29979508 29979508"/>
    </vehicle>
    <vehicle id="bike52" type="bike_bicycle" depart="367.38" departLane="best">
        <route edges="-447857315#2 447857315#2 447857315#3 447857315#4 447857315#5 -447857309#0 -162561738#1 -360827911#1 393764297#1 393764297#2 393764297#3 393764300#0 393764300#1 393764300#2 393764300#3 425555630#2 227337561 426538581#0 426538581#1 426538581#2 423133516 423133512 28246185 194714719 440710413#0 440710413#1 440710413#2 440710413#3 440710544 84526771#0 84526771#1 476707103#0 476707103#1 520948065 387488097#1"/>
    </vehicle>
    <vehicle id="bike53" type="bike_bicycle" depart="374.45" departLane="best">
        <route edges="-364154088#2 -364154088#1 -364154088#0 188215406 423133512 149642749 393878671#0 393878671#1 467392235#1 425555627#0 425555627#1 69353459#0 -227338318#2 -227338318#1 -227338318#0 393835185 663774150#0 663774150#1 663774150#2 338332423#0 360827911#1 162561738#1 162561738#2"/>
    </vehicle>
    <vehicle id="bike54" type="bike_bicycle" depart="381.51" departLane="best">
        <route edges="178404413#2 -393248438#0 -178404413#1 -178404413#0 260980642#1 388006888#0 388006888#1 388006867#3 223813241 326522374 -371436527#1 -371436527#0 -93359206 -93359213#5 -93359213#4 -93359213#2 -93359213#1 -93359213#0 93359226#0 93359226#1 93359176#0"/>
    </vehicle>
    <vehicle id="bike55" type="bike_bicycle" depart="388.58" departLane="best">
        <route edges="69353439#1 69353439#2 69353439#6 69353439#7 663774150#0 663774150#1 663774150#2 338332423#0 360827911#1 162561738#1 447857309#0 -447857315#5 -447857315#4 -447857315#3 -447857315#2 -447857315#1 -447857315#0"/>
    </vehicle>
    <vehicle id="bike56" type="bike_bicycle" depart="395.64" departLane="best">
        <route edges="25210189#0 25210189#2 25210189#4 25210189#5 25210189#6 25210189#7 25210189#8 25210189#10 152100999 594713490 443202032 377213301#0 377213301#1 377213301#2 393878675 388280785 28242822#0 28242822#1 28242822#2 371436540#1 371436540#2 -364154091 -93359213#5 -93359213#4 -93359213#2 -93359213#1 -93359213#0 93359226#0 93359226#1 93359226#2 93359226#3 -388211544#1"/>
    </vehicle>
    <vehicle id="bike57" type="bike_bicycle" depart="402.71" departLane="best">
        <route edges="772693125#1 -772693125#1 -772693125#0 38903574#3 38903574#4 38903574#5 394318370#5 25210189#10 152100999 594713490 443202032 377213301#0 377213301#1 377213301#2 23019717 393248497#0 393248497#1 393248497#2 251421193#0 393878673#0 393878673#1 440710544 84526771#0 84526771#1 96202364#0 96202364#1 -223581247#5 -223581247#4 -223581247#3 -223581247#2 25691739#0 25691739#1 69353456#1 69353456#2 69353456#3 69353456#4 69353456#5 670024869"/>
    </vehicle>
    <vehicle id="bike58" type="bike_bicycle" depart="409.77" departLane="best">
        <route edges="-479037390#1 479037390#1 -718314466#3 -718314466#2 -718314466#1 -718314466#0 718314465 426538581#2 423133516 423133512 28246185 194714719 440710413#0 958944829#3 393248506#4 -393907860#2 -393907860#1 -393907860#0 -996115426 393907870#0 393907870#1 387488096#0 387488096#1"/>
    </vehicle>
    <vehicle id="bike59" type="bike_bicycle" depart="416.84" departLane="best" departSpeed="max">
        <route edges="377625717#0 377625717#1 -387830973#0 84526820#0 84526820#1 476707103#0 476707103#1 520948066 393248508 393248511#0 393248511#1 375371401 313843749#1 313843749#2 313843749#3 366838964 388280785 377213302 23888931 388280781 385079851 152101003 -25210189#10 384709893#1 384709893#2 384709893#3 384709893#4 384709893#5 -384709893#5"/>
    </vehicle>
    <vehicle id="bike60" type="bike_bicycle" depart="423.90" departLane="best">
        <route edges="440710413#1 393248511#0 393248511#1 375371401 313843749#1 313843749#2 313843749#3 366838964 388280785 377213302 23888931 23019727#0 23019727#1 23019727#2 -388211543 -388006867#3 -388006867#1 -388006867#0 388006888#5 -314738746#1 150258989#2 -29979508 29979510#1"/>
    </vehicle>
    <vehicle id="bike61" type="bike_bicycle" depart="430.97" departLane="best">
        <route edges="447857309#7 -447857309#7 -447857313#1 447857315#2 447857315#3 447857315#4 447857315#5 -447857309#0 -162561738#1 -360827911#1 393764297#1 393764297#2 393764297#3 393764300#0 393764300#1 393764300#2 393764300#3 425555630#2 227337561 426538581#0 426538581#1 426538581#2 423133516 423133512 28246185"/>
    </vehicle>
    <vehicle id="bike62" type="bike_bicycle" depart="438.03" departLane="best">
        <route edges="-150258989#0 96202384#0 -388006888#4 575525395#1 -575525395#1"/>
    </vehicle>
    <vehicle id="bike63" type="bike_bicycle" depart="445.10" departLane="best">
        <route edges="-162561738#10 -162561738#8 -162561738#6 -162561738#4 -162561738#2 -162561738#1 -360827911#1 393764297#1 393764297#2 393764297#3 393764300#0 393764300#1 393764300#2 393764300#3 425555630#2 227337561 426538581#0 426538581#1 426538581#2 423133516 423133512 28246185 194714719 440710413#0 958944829#3 393248506#4 194714712 809062693 780648238#0"/>
    </vehicle>
    <vehicle id="bike64" type="bike_bicycle" depart="452.16" departLane="best">
        <route edges="69353439#6 69353439#7 393764300#0 393764300#1 393764300#2 393764300#3 69353439#1 69353439#2 69357521#3 -479037374#1 479037374#1"/>
    </vehicle>
    <vehicle id="bike65" type="bike_bicycle" depart="459.23" departLane="best" departSpeed="max">
        <route edges="-479264599 772693129#3 772693129#4 772693129#6 -38903574#1 394318370#2 394318370#3 25210189#5 25210189#6 25210189#7 25210189#8 25210189#10 152100999 594713490 443202032 377213301#0 377213301#1 377213301#2 23019717 393248497#0 393248497#1 393248497#2 251421193#0 393248506#0 393248506#1 393248506#2 393248506#3 393248506#4 194714712 809062693 780648238#0 476631724 570972282#0 69353439#6 69353439#7 227341950#0 -227341950#0"/>
    </vehicle>
    <vehicle id="bike66" type="bike_bicycle" depart="466.29" departLane="best">
        <route edges="69353439#6 69353439#7 393764300#0 393764300#1 393764300#2 393764300#3 425555630#2 227337561 426538581#0 426538581#1 426538581#2 423133516 423133512 28246185 194714719 440710413#0 440710413#1 440710413#2 440710413#3 440710544 84526823#0 84526823#1"/>
    </vehicle>
    <vehicle id="bike67" type="bike_bicycle" depart="473.36" departLane="best">
        <route edges="-26149300#2 26149300#2 26149299 377213301#2 393878675 388280785 377213302 23888931 23019727#0 23019727#1 23019727#2"/>
    </vehicle>
    <vehicle id="bike68" type="bike_bicycle" depart="480.42" departLane="best">
        <route edges="-25691683#0 223581247#2 223581247#3 223581247#4 223581247#5 23019752#0 387488096#0 387488096#1 520948065 387488097#1 387488097#2 194714712 809062693 809062692 393878671#0 393878671#1 467392235#1 425555627#0 425555627#1 69353459#0 425555630#2"/>
    </vehicle>
    <vehicle id="bike69" type="bike_bicycle" depart="487.49" departLane="best">
        <route edges="440710544 84526771#0 84526771#1 476707103#0 476707103#1 520948066 393248508 393248511#0 393248511#1 375371401 313843749#1 96198633#1 -96198629#0 -377213305 -96198635 28242822#2 371436540#1 -371436540#1"/>
    </vehicle>
    <vehicle id="bike70" type="bike_bicycle" depart="494.55" departLane="best">
        <route edges="223813243#1 -364154090#0 -223813243#0 93359213#5 364154091 -371436540#2 218390407#0 385080086#0 385080086#1 188215407 23019727#1 23019727#2 -388211543 -388006867#3 -388006867#1 -388006867#0 388006888#5 -314738746#1 314738746#1"/>
    </vehicle>
    <vehicle id="bike71" type="bike_bicycle" depart="501.62" departLane="best">
        <route edges="-447857315#1 447857315#1 447857315#2 447857315#3 447857315#4 447857315#5 -447857309#0 -162561738#1 -360827911#1 162563271#0 162563271#1 683185817"/>
    </vehicle>
    <vehicle id="bike72" type="bike_bicycle" depart="508.68" departLane="best">
        <route edges="150258989#6 24045593#0 24045593#1 393878678 96202384#0 96202384#1 388006867#1 388006867#3 388211543 73204671#0 73204671#1 393248455 385079851 388040068 594713490 443202032 377213301#0 377213301#1 377213301#2 393878675 388280785 28242822#0 28242822#1 28242822#2 -364154088#2 -364154088#1 -393984894 718314466#1 718314466#2 339708929 -393764343#14 -393764343#13 -393764343#12 -393764343#11 -479037391 -393764343#6"/>
    </vehicle>
    <vehicle id="bike73" type="bike_bicycle" depart="515.75" departLane="best" departSpeed="max">
        <route edges="27414767#0 150258989#2 150258989#3 150258989#4 150258989#5 150258989#6 24045593#0 24045593#1 393878678"/>
    </vehicle>
    <vehicle id="bike74" type="bike_bicycle" depart="522.81" departLane="best">
        <route edges="-393613651 393613651 394472053#1 394472053#2 -364154088#1 -364154088#0 188215406 423133512 149642749 393878671#0 393878671#1 467392235#1 425555627#0 425555627#1 69353459#0 -227338318#2 -227338318#1 -227338318#0 393835185 663774150#0 663774150#1 663774150#2 338332423#0 360827911#1 162561738#1 552900619#0 552900620 -552900619#2"/>
    </vehicle>
    <vehicle id="bike75" type="bike_bicycle" depart="529.88" departLane="best">
        <route edges="96202384#0 96202384#1 388006867#1 -388006888#1 -388006888#0 -260980642#1 388006887"/>
    </vehicle>
    <vehicle id="bike76" type="bike_bicycle" depart="536.94" departLane="best" departSpeed="max">
        <route edges="163993620#0 163993620#1 163993620#2 -360827911#1 393764297#1 393764297#2 393764297#3 393764300#0 393764300#1 393764300#2 393764300#3 425555630#2 227337561 426538581#0 426538581#1 426538581#2 423133516 423133512 28246185 194714719 440710413#0 440710413#1 393248511#0 468755769#1 468755769#2 468755769#3 -958944692#2 25822389#2 25822399#4"/>
    </vehicle>
    <vehicle id="bike77" type="bike_bicycle" depart="544.01" departLane="best">
        <route edges="-371436540#2 218390407#0 385080086#0 385080086#1 377213300 23888931 388280781 385079851 152101003 -25210189#10 -25210189#8 -25210189#7 -25210189#6 -25210189#5 -394318370#3 -394318370#2 -394318370#0"/>
    </vehicle>
    <vehicle id="bike78" type="bike_bicycle" depart="551.07" departLane="best">