<?xml version="1.0" encoding="iso-8859-1"?>
<!-- This file is part of an OMNeT++ simulation example for Connected and Autonomous Vehicles class (Winter semester 2021-2022) -->

<!--
Based on map data Copyright (C) 2011 OpenStreetMap contributors <http://openstreetmap.org>
Licensed under the Creative Commons Attribution-ShareAlike 2.0 license <http://creativecommons.org/licenses/by-sa/2.0/>
-->

<!-- generated on Wed Nov 30 12:18:33 2011 by SUMO netconvert Version 0.13.1
<?xml version="1.0" encoding="iso-8859-1"?>

<configuration xmlns:xsi="http://www.w3.org/2001/XMLSchema-instance" xsi:noNamespaceSchemaLocation="http://sumo.sf.net/xsd/netconvertConfiguration.xsd">

    <input>
        <type-files value="erlangen.edgetypes.xml"/>
        <osm-files value="erlangen.osm"/>
    </input>

    <output>
        <output-file value="erlangen.net.xml"/>
    </output>

    <projection>
        <proj.utm value="true"/>
    </projection>

    <edge_removal>
        <remove-edges.isolated value="true"/>
    </edge_removal>

    <processing>
        <osm.discard-tls value="true"/>
        <no-turnarounds value="false"/>
        <offset.disable-normalization value="true"/>
        <roundabouts.guess value="true"/>
        <junctions.join value="true"/>
    </processing>

</configuration>
-->

<net version="0.13" xmlns:xsi="http://www.w3.org/2001/XMLSchema-instance" xsi:noNamespaceSchemaLocation="http://sumo.sf.net/xsd/net_file.xsd">

    <location netOffset="-712689.56,-5487290.19" convBoundary="0.00,0.00,2760.99,1425.45" origBoundary="5.938218,49.497613,5.977077,49.513717" projParameter="+proj=utm +zone=31 +ellps=WGS84 +datum=WGS84 +units=m +no_defs"/>

    <type id="highway.bridleway" priority="1" numLanes="1" speed="2.78" allow="pedestrian" oneway="1" width="2.00"/>
    <type id="highway.bus_guideway" priority="1" numLanes="1" speed="27.78" allow="bus" oneway="1"/>
    <type id="highway.cycleway" priority="1" numLanes="1" speed="8.33" allow="bicycle" oneway="0" width="1.00"/>
    <type id="highway.footway" priority="1" numLanes="1" speed="2.78" allow="pedestrian" oneway="1" width="2.00"/>
    <type id="highway.ford" priority="1" numLanes="1" speed="2.78" allow="army" oneway="0"/>
    <type id="highway.living_street" priority="2" numLanes="1" speed="2.78" disallow="tram rail_urban rail rail_electric rail_fast ship" oneway="0"/>
    <type id="highway.motorway" priority="14" numLanes="2" speed="39.44" allow="private emergency authority army vip passenger hov taxi bus coach delivery truck trailer motorcycle evehicle custom1 custom2" oneway="1"/>
    <type id="highway.motorway_link" priority="9" numLanes="1" speed="22.22" allow="private emergency authority army vip passenger hov taxi bus coach delivery truck trailer motorcycle evehicle custom1 custom2" oneway="1"/>
    <type id="highway.path" priority="1" numLanes="1" speed="2.78" allow="pedestrian bicycle" oneway="0" width="2.00"/>
    <type id="highway.pedestrian" priority="1" numLanes="1" speed="2.78" allow="pedestrian" oneway="1" width="2.00"/>
    <type id="highway.primary" priority="12" numLanes="2" speed="27.78" disallow="tram rail_urban rail rail_electric rail_fast ship" oneway="0"/>
    <type id="highway.primary_link" priority="7" numLanes="1" speed="22.22" disallow="tram rail_urban rail rail_electric rail_fast ship" oneway="0"/>
    <type id="highway.raceway" priority="15" numLanes="2" speed="83.33" allow="vip" oneway="0"/>
    <type id="highway.residential" priority="3" numLanes="1" speed="13.89" disallow="tram rail_urban rail rail_electric rail_fast ship" oneway="0"/>
    <type id="highway.secondary" priority="11" numLanes="1" speed="27.78" disallow="tram rail_urban rail rail_electric rail_fast ship" oneway="0"/>
    <type id="highway.secondary_link" priority="6" numLanes="1" speed="22.22" disallow="tram rail_urban rail rail_electric rail_fast ship" oneway="0"/>
    <type id="highway.service" priority="1" numLanes="1" speed="5.56" allow="pedestrian delivery bicycle" oneway="0"/>
    <type id="highway.stairs" priority="1" numLanes="1" speed="1.39" allow="pedestrian" oneway="1" width="2.00"/>
    <type id="highway.step" priority="1" numLanes="1" speed="1.39" allow="pedestrian" oneway="1" width="2.00"/>
    <type id="highway.steps" priority="1" numLanes="1" speed="1.39" allow="pedestrian" oneway="1" width="2.00"/>
    <type id="highway.tertiary" priority="10" numLanes="1" speed="22.22" disallow="tram rail_urban rail rail_electric rail_fast ship" oneway="0"/>
    <type id="highway.tertiary_link" priority="5" numLanes="1" speed="22.22" disallow="tram rail_urban rail rail_electric rail_fast ship" oneway="0"/>
    <type id="highway.track" priority="1" numLanes="1" speed="5.56" allow="pedestrian motorcycle moped bicycle" oneway="0"/>
    <type id="highway.trunk" priority="13" numLanes="2" speed="27.78" disallow="pedestrian bicycle tram rail_urban rail rail_electric rail_fast ship" oneway="0"/>
    <type id="highway.trunk_link" priority="8" numLanes="1" speed="22.22" disallow="pedestrian bicycle tram rail_urban rail rail_electric rail_fast ship" oneway="0"/>
    <type id="highway.unclassified" priority="4" numLanes="1" speed="13.89" disallow="tram rail_urban rail rail_electric rail_fast ship" oneway="0"/>
    <type id="highway.unsurfaced" priority="1" numLanes="1" speed="8.33" disallow="tram rail_urban rail rail_electric rail_fast ship" oneway="0"/>
    <type id="railway.highspeed" priority="21" numLanes="1" speed="69.44" allow="rail_fast" oneway="1"/>
    <type id="railway.light_rail" priority="19" numLanes="1" speed="27.78" allow="rail_urban" oneway="1"/>
    <type id="railway.preserved" priority="16" numLanes="1" speed="27.78" allow="rail" oneway="1"/>
    <type id="railway.rail" priority="20" numLanes="1" speed="44.44" allow="rail" oneway="1"/>
    <type id="railway.subway" priority="18" numLanes="1" speed="27.78" allow="rail_urban" oneway="1"/>
    <type id="railway.tram" priority="17" numLanes="1" speed="13.89" allow="tram" oneway="1"/>

    <edge id=":1073574317_0" function="internal">
        <lane id=":1073574317_0_0" index="0" disallow="tram rail_urban rail rail_electric rail_fast ship" speed="3.65" length="4.67" shape="2374.23,1056.46 2375.37,1057.35 2375.71,1058.17 2375.25,1058.94 2373.99,1059.65"/>
    </edge>
    <edge id=":1082543136_0" function="internal">
        <lane id=":1082543136_0_0" index="0" disallow="tram rail_urban rail rail_electric rail_fast ship" speed="3.65" length="4.67" shape="1379.61,689.31 1380.26,688.02 1381.00,687.53 1381.85,687.83 1382.79,688.92"/>
    </edge>
    <edge id=":1616469718_0" function="internal">
        <lane id=":1616469718_0_0" index="0" disallow="tram rail_urban rail rail_electric rail_fast ship" speed="3.65" length="4.67" shape="944.18,1105.99 943.26,1104.88 943.11,1104.00 943.73,1103.35 945.11,1102.93"/>
    </edge>
    <edge id=":1631793677_0" function="internal">
        <lane id=":1631793677_0_0" index="0" disallow="pedestrian bicycle tram rail_urban rail rail_electric rail_fast ship" speed="27.78" length="21.02" shape="684.70,607.24 697.26,623.94"/>
        <lane id=":1631793677_0_1" index="1" disallow="pedestrian bicycle tram rail_urban rail rail_electric rail_fast ship" speed="27.78" length="21.02" shape="682.00,608.97 694.71,625.87"/>
    </edge>
    <edge id=":1631793685_0" function="internal">
        <lane id=":1631793685_0_0" index="0" disallow="pedestrian bicycle tram rail_urban rail rail_electric rail_fast ship" speed="27.78" length="0.27" shape="684.98,632.98 684.85,632.78"/>
        <lane id=":1631793685_0_1" index="1" disallow="pedestrian bicycle tram rail_urban rail rail_electric rail_fast ship" speed="27.78" length="0.27" shape="687.64,631.19 687.46,630.93"/>
    </edge>
    <edge id=":1631828656_0" function="internal">
        <lane id=":1631828656_0_0" index="0" disallow="tram rail_urban rail rail_electric rail_fast ship" speed="3.65" length="4.67" shape="1980.08,259.66 1980.88,258.45 1981.68,258.05 1982.48,258.44 1983.28,259.64"/>
    </edge>
    <edge id=":1631828657_0" function="internal">
        <lane id=":1631828657_0_0" index="0" disallow="tram rail_urban rail rail_electric rail_fast ship" speed="3.65" length="4.67" shape="2032.52,289.25 2033.72,290.06 2034.11,290.86 2033.71,291.66 2032.50,292.45"/>
    </edge>
    <edge id=":1631828658_0" function="internal">
        <lane id=":1631828658_0_0" index="0" disallow="tram rail_urban rail rail_electric rail_fast ship" speed="6.51" length="8.99" shape="1988.99,292.19 1986.55,292.52 1984.80,293.56 1983.73,295.29 1983.35,297.72"/>
    </edge>
    <edge id=":1631828658_1" function="internal">
        <lane id=":1631828658_1_0" index="0" disallow="tram rail_urban rail rail_electric rail_fast ship" speed="8.01" length="14.12" shape="1988.99,292.19 1985.16,291.62 1982.43,289.97 1980.77,287.24 1980.21,283.42"/>
    </edge>
    <edge id=":1631828658_2" function="internal">
        <lane id=":1631828658_2_0" index="0" disallow="tram rail_urban rail rail_electric rail_fast ship" speed="3.65" length="4.67" shape="1988.99,292.19 1987.79,291.38 1987.40,290.58 1987.80,289.78 1989.01,288.99"/>
    </edge>
    <edge id=":1631828658_3" function="internal">
        <lane id=":1631828658_3_0" index="0" disallow="tram rail_urban rail rail_electric rail_fast ship" speed="6.52" length="9.00" shape="1983.41,283.40 1983.77,285.83 1984.82,287.58 1986.57,288.63 1989.01,288.99"/>
    </edge>
    <edge id=":1631828658_4" function="internal">
        <lane id=":1631828658_4_0" index="0" disallow="tram rail_urban rail rail_electric rail_fast ship" speed="8.33" length="14.32" shape="1983.41,283.40 1983.35,297.72"/>
    </edge>
    <edge id=":1631828658_5" function="internal">
        <lane id=":1631828658_5_0" index="0" disallow="tram rail_urban rail rail_electric rail_fast ship" speed="3.65" length="4.67" shape="1983.41,283.40 1982.61,284.61 1981.82,285.01 1981.01,284.61 1980.21,283.42"/>
    </edge>
    <edge id=":1631828658_6" function="internal">
        <lane id=":1631828658_6_0" index="0" disallow="tram rail_urban rail rail_electric rail_fast ship" speed="8.33" length="14.26" shape="1980.15,297.68 1980.21,283.42"/>
    </edge>
    <edge id=":1631828658_7" function="internal">
        <lane id=":1631828658_7_0" index="0" disallow="tram rail_urban rail rail_electric rail_fast ship" speed="8.00" length="14.12" shape="1980.15,297.68 1980.75,293.86 1982.42,291.14 1985.17,289.51 1989.01,288.99"/>
    </edge>
    <edge id=":1631828658_8" function="internal">
        <lane id=":1631828658_8_0" index="0" disallow="tram rail_urban rail rail_electric rail_fast ship" speed="3.65" length="4.67" shape="1980.15,297.68 1980.97,296.49 1981.77,296.10 1982.57,296.51 1983.35,297.72"/>
    </edge>
    <edge id=":1631828660_0" function="internal">
        <lane id=":1631828660_0_0" index="0" disallow="tram rail_urban rail rail_electric rail_fast ship" speed="3.65" length="4.67" shape="2031.43,342.04 2032.63,342.84 2033.03,343.64 2032.63,344.44 2031.43,345.24"/>
    </edge>
    <edge id=":1631828661_0" function="internal">
        <lane id=":1631828661_0_0" index="0" disallow="tram rail_urban rail rail_electric rail_fast ship" speed="8.33" length="14.56" shape="1979.71,350.90 1979.66,336.34"/>
    </edge>
    <edge id=":1631828661_1" function="internal">
        <lane id=":1631828661_1_0" index="0" disallow="tram rail_urban rail rail_electric rail_fast ship" speed="7.96" length="14.27" shape="1979.71,350.90 1980.19,347.01 1981.80,344.23 1984.55,342.56 1988.43,342.01"/>
    </edge>
    <edge id=":1631828661_2" function="internal">
        <lane id=":1631828661_2_0" index="0" disallow="tram rail_urban rail rail_electric rail_fast ship" speed="3.65" length="4.67" shape="1979.71,350.90 1980.49,349.68 1981.28,349.27 1982.09,349.65 1982.91,350.83"/>
    </edge>
    <edge id=":1631828661_3" function="internal">
        <lane id=":1631828661_3_0" index="0" disallow="tram rail_urban rail rail_electric rail_fast ship" speed="6.46" length="9.03" shape="1988.43,345.21 1985.97,345.56 1984.23,346.61 1983.21,348.37 1982.91,350.83"/>
    </edge>
    <edge id=":1631828661_4" function="internal">
        <lane id=":1631828661_4_0" index="0" disallow="tram rail_urban rail rail_electric rail_fast ship" speed="7.99" length="14.26" shape="1988.43,345.21 1984.55,344.65 1981.79,342.99 1980.16,340.22 1979.66,336.34"/>
    </edge>
    <edge id=":1631828661_5" function="internal">
        <lane id=":1631828661_5_0" index="0" disallow="tram rail_urban rail rail_electric rail_fast ship" speed="3.65" length="4.67" shape="1988.43,345.21 1987.23,344.41 1986.83,343.60 1987.23,342.81 1988.43,342.01"/>
    </edge>
    <edge id=":1631828661_6" function="internal">
        <lane id=":1631828661_6_0" index="0" disallow="tram rail_urban rail rail_electric rail_fast ship" speed="6.49" length="9.06" shape="1982.86,336.38 1983.18,338.84 1984.21,340.60 1985.97,341.65 1988.43,342.01"/>
    </edge>
    <edge id=":1631828661_7" function="internal">
        <lane id=":1631828661_7_0" index="0" disallow="tram rail_urban rail rail_electric rail_fast ship" speed="8.33" length="14.45" shape="1982.86,336.38 1982.91,350.83"/>
    </edge>
    <edge id=":1631828661_8" function="internal">
        <lane id=":1631828661_8_0" index="0" disallow="tram rail_urban rail rail_electric rail_fast ship" speed="3.65" length="4.67" shape="1982.86,336.38 1982.04,337.57 1981.23,337.96 1980.44,337.55 1979.66,336.34"/>
    </edge>
    <edge id=":1631828669_0" function="internal">
        <lane id=":1631828669_0_0" index="0" disallow="tram rail_urban rail rail_electric rail_fast ship" speed="13.89" length="14.38" shape="1992.45,431.37 1978.08,431.91"/>
    </edge>
    <edge id=":1631828669_1" function="internal">
        <lane id=":1631828669_1_0" index="0" disallow="tram rail_urban rail rail_electric rail_fast ship" speed="7.90" length="5.91" shape="1992.45,431.37 1988.49,430.94 1986.82,429.98"/>
    </edge>
    <edge id=":1631828669_2" function="internal">
        <lane id=":1631828669_2_0" index="0" disallow="tram rail_urban rail rail_electric rail_fast ship" speed="3.65" length="2.34" shape="1992.45,431.37 1991.22,430.61 1990.80,429.83"/>
    </edge>
    <edge id=":1631828669_9" function="internal">
        <lane id=":1631828669_9_0" index="0" disallow="tram rail_urban rail rail_electric rail_fast ship" speed="7.90" length="8.51" shape="1986.82,429.98 1985.69,429.34 1984.06,426.56 1983.58,422.60"/>
    </edge>
    <edge id=":1631828669_10" function="internal">
        <lane id=":1631828669_10_0" index="0" disallow="tram rail_urban rail rail_electric rail_fast ship" speed="3.65" length="2.34" shape="1990.80,429.83 1991.17,429.01 1992.34,428.17"/>
    </edge>
    <edge id=":1631828669_3" function="internal">
        <lane id=":1631828669_3_0" index="0" disallow="tram rail_urban rail rail_electric rail_fast ship" speed="6.38" length="9.04" shape="1986.78,422.68 1987.08,425.15 1988.10,426.90 1989.86,427.90 1992.34,428.17"/>
    </edge>
    <edge id=":1631828669_4" function="internal">
        <lane id=":1631828669_4_0" index="0" disallow="tram rail_urban rail rail_electric rail_fast ship" speed="8.22" length="14.27" shape="1986.78,422.68 1986.16,426.59 1984.50,429.43 1981.81,431.21 1978.08,431.91"/>
    </edge>
    <edge id=":1631828669_5" function="internal">
        <lane id=":1631828669_5_0" index="0" disallow="tram rail_urban rail rail_electric rail_fast ship" speed="3.65" length="4.67" shape="1986.78,422.68 1985.95,423.86 1985.14,424.24 1984.35,423.82 1983.58,422.60"/>
    </edge>
    <edge id=":1631828669_6" function="internal">
        <lane id=":1631828669_6_0" index="0" disallow="tram rail_urban rail rail_electric rail_fast ship" speed="6.76" length="9.35" shape="1977.95,428.72 1980.36,428.25 1982.10,427.07 1983.18,425.19 1983.58,422.60"/>
    </edge>
    <edge id=":1631828669_7" function="internal">
        <lane id=":1631828669_7_0" index="0" disallow="tram rail_urban rail rail_electric rail_fast ship" speed="13.89" length="14.40" shape="1977.95,428.72 1992.34,428.17"/>
    </edge>
    <edge id=":1631828669_8" function="internal">
        <lane id=":1631828669_8_0" index="0" disallow="tram rail_urban rail rail_electric rail_fast ship" speed="3.65" length="2.34" shape="1977.95,428.72 1979.18,429.47 1979.61,430.25"/>
    </edge>
    <edge id=":1631828669_11" function="internal">
        <lane id=":1631828669_11_0" index="0" disallow="tram rail_urban rail rail_electric rail_fast ship" speed="3.65" length="2.34" shape="1979.61,430.25 1979.25,431.07 1978.08,431.91"/>
    </edge>
    <edge id=":1649300064_0" function="internal">
        <lane id=":1649300064_0_0" index="0" disallow="tram rail_urban rail rail_electric rail_fast ship" speed="11.11" length="10.25" shape="1403.49,860.45 1406.07,861.99 1408.04,862.75 1410.15,862.93 1413.16,862.76"/>
    </edge>
    <edge id=":1649300064_1" function="internal">
        <lane id=":1649300064_1_0" index="0" disallow="tram rail_urban rail rail_electric rail_fast ship" speed="13.89" length="10.20" shape="1403.49,860.45 1406.08,862.33 1407.57,863.99 1408.71,865.97 1410.28,868.84"/>
        <lane id=":1649300064_1_1" index="1" disallow="tram rail_urban rail rail_electric rail_fast ship" speed="13.89" length="10.20" shape="1401.76,863.15 1404.14,864.91 1405.45,866.50 1406.45,868.39 1407.87,871.07"/>
        <lane id=":1649300064_1_2" index="2" disallow="tram rail_urban rail rail_electric rail_fast ship" speed="13.89" length="10.20" shape="1400.04,865.84 1402.20,867.50 1403.34,869.01 1404.19,870.80 1405.47,873.30"/>
    </edge>
    <edge id=":1887561493_0" function="internal">
        <lane id=":1887561493_0_0" index="0" disallow="tram rail_urban rail rail_electric rail_fast ship" speed="3.65" length="4.67" shape="1206.94,1138.65 1207.15,1140.07 1206.83,1140.91 1205.97,1141.15 1204.57,1140.79"/>
    </edge>
    <edge id=":1887561502_0" function="internal">
        <lane id=":1887561502_0_0" index="0" disallow="tram rail_urban rail rail_electric rail_fast ship" speed="3.65" length="4.67" shape="782.87,1198.19 781.91,1199.26 781.06,1199.54 780.33,1199.03 779.71,1197.73"/>
    </edge>
    <edge id=":1988382847_0" function="internal">
        <lane id=":1988382847_0_0" index="0" disallow="tram rail_urban rail rail_electric rail_fast ship" speed="13.89" length="57.38" shape="1365.87,826.67 1402.82,782.77"/>
    </edge>
    <edge id=":1988382847_1" function="internal">
        <lane id=":1988382847_1_0" index="0" disallow="tram rail_urban rail rail_electric rail_fast ship" speed="13.89" length="57.78" shape="1368.99,829.56 1375.13,819.49 1385.03,805.59 1395.36,791.99 1402.82,782.77"/>
        <lane id=":1988382847_1_1" index="1" disallow="tram rail_urban rail rail_electric rail_fast ship" speed="13.89" length="57.78" shape="1371.53,831.70 1377.65,821.62 1387.50,807.71 1397.79,794.09 1405.23,784.87"/>
    </edge>
    <edge id=":1988382853_0" function="internal">
        <lane id=":1988382853_0_0" index="0" disallow="tram rail_urban rail rail_electric rail_fast ship" speed="13.89" length="8.48" shape="1302.51,798.43 1302.04,800.91 1301.68,802.61 1301.50,804.32 1301.62,806.82"/>
    </edge>
    <edge id=":1988382853_1" function="internal">
        <lane id=":1988382853_1_0" index="0" disallow="tram rail_urban rail rail_electric rail_fast ship" speed="13.89" length="8.82" shape="1299.20,798.36 1298.84,800.96 1298.50,802.74 1298.32,804.52 1298.44,807.12"/>
    </edge>
    <edge id=":1988382858_0" function="internal">
        <lane id=":1988382858_0_0" index="0" disallow="tram rail_urban rail rail_electric rail_fast ship" speed="8.92" length="8.94" shape="1310.39,841.62 1311.29,842.88 1312.86,844.00 1315.09,845.00 1317.99,845.86"/>
    </edge>
    <edge id=":1988382858_1" function="internal">
        <lane id=":1988382858_1_0" index="0" disallow="tram rail_urban rail rail_electric rail_fast ship" speed="13.89" length="9.72" shape="1310.39,841.62 1311.60,844.12 1312.64,845.72 1313.84,847.23 1315.51,849.47"/>
        <lane id=":1988382858_1_1" index="1" disallow="tram rail_urban rail rail_electric rail_fast ship" speed="13.89" length="9.72" shape="1307.45,842.90 1308.74,845.57 1309.84,847.28 1311.11,848.91 1312.88,851.30"/>
    </edge>
    <edge id=":1988382865_0" function="internal">
        <lane id=":1988382865_0_0" index="0" disallow="tram rail_urban rail rail_electric rail_fast ship" speed="9.82" length="10.39" shape="1332.09,858.06 1335.14,858.59 1337.68,858.72 1339.70,858.46 1341.21,857.80"/>
        <lane id=":1988382865_0_1" index="1" disallow="tram rail_urban rail rail_electric rail_fast ship" speed="10.84" length="10.39" shape="1331.87,861.28 1335.38,861.85 1338.40,861.90 1340.95,861.43 1343.02,860.44"/>
    </edge>
    <edge id=":1988382865_2" function="internal">
        <lane id=":1988382865_2_0" index="0" disallow="tram rail_urban rail rail_electric rail_fast ship" speed="13.89" length="10.46" shape="1333.28,865.41 1335.53,863.03 1337.01,861.32 1338.61,859.76 1341.21,857.80"/>
        <lane id=":1988382865_2_1" index="1" disallow="tram rail_urban rail rail_electric rail_fast ship" speed="13.89" length="10.46" shape="1335.53,867.69 1337.66,865.43 1339.05,863.79 1340.56,862.30 1343.02,860.44"/>
        <lane id=":1988382865_2_2" index="2" disallow="tram rail_urban rail rail_electric rail_fast ship" speed="13.89" length="10.46" shape="1337.78,869.96 1339.79,867.82 1341.09,866.27 1342.50,864.84 1344.83,863.08"/>
    </edge>
    <edge id=":2052208049_0" function="internal">
        <lane id=":2052208049_0_0" index="0" disallow="pedestrian bicycle tram rail_urban rail rail_electric rail_fast ship" speed="27.78" length="7.00" shape="691.81,639.30 690.21,637.94 688.89,637.24 687.65,636.47 686.29,634.92"/>
        <lane id=":2052208049_0_1" index="1" disallow="pedestrian bicycle tram rail_urban rail rail_electric rail_fast ship" speed="27.78" length="7.00" shape="691.81,639.30 690.65,637.68 690.22,636.34 689.87,634.94 688.95,633.13"/>
    </edge>
    <edge id=":2052208085_0" function="internal">
        <lane id=":2052208085_0_0" index="0" disallow="tram rail_urban rail rail_electric rail_fast ship" speed="13.89" length="14.38" shape="870.81,923.04 856.54,921.27"/>
        <lane id=":2052208085_0_1" index="1" disallow="tram rail_urban rail rail_electric rail_fast ship" speed="13.89" length="14.38" shape="871.21,919.87 856.93,918.09"/>
    </edge>
    <edge id=":2052208085_2" function="internal">
        <lane id=":2052208085_2_0" index="0" disallow="tram rail_urban rail rail_electric rail_fast ship" speed="6.90" length="10.62" shape="865.79,918.48 865.11,920.10 863.34,921.11 860.48,921.50 856.54,921.27"/>
    </edge>
    <edge id=":2052208085_3" function="internal">
        <lane id=":2052208085_3_0" index="0" disallow="tram rail_urban rail rail_electric rail_fast ship" speed="5.29" length="5.82" shape="862.60,918.24 861.82,918.65 860.11,918.58 858.22,918.30 856.93,918.09"/>
    </edge>
    <edge id=":2187078130_0" function="internal">
        <lane id=":2187078130_0_0" index="0" disallow="tram rail_urban rail rail_electric rail_fast ship" speed="11.26" length="3.75" shape="826.33,684.80 825.25,684.55 824.49,684.47 823.72,684.53 822.63,684.73"/>
    </edge>
    <edge id=":2187078130_1" function="internal">
        <lane id=":2187078130_1_0" index="0" disallow="tram rail_urban rail rail_electric rail_fast ship" speed="3.65" length="2.34" shape="826.33,684.80 825.36,683.74 825.16,682.87"/>
    </edge>
    <edge id=":2187078130_4" function="internal">
        <lane id=":2187078130_4_0" index="0" disallow="tram rail_urban rail rail_electric rail_fast ship" speed="3.65" length="2.34" shape="825.16,682.87 825.73,682.18 827.09,681.69"/>
    </edge>
    <edge id=":2187078130_2" function="internal">
        <lane id=":2187078130_2_0" index="0" disallow="tram rail_urban rail rail_electric rail_fast ship" speed="13.89" length="5.52" shape="821.90,679.92 823.34,680.69 824.38,681.08 825.49,681.33 827.09,681.69"/>
    </edge>
    <edge id=":2187078130_3" function="internal">
        <lane id=":2187078130_3_0" index="0" disallow="tram rail_urban rail rail_electric rail_fast ship" speed="4.98" length="4.63" shape="821.90,679.92 824.34,681.61 825.28,682.98"/>
    </edge>
    <edge id=":2187078130_5" function="internal">
        <lane id=":2187078130_5_0" index="0" disallow="tram rail_urban rail rail_electric rail_fast ship" speed="4.98" length="3.38" shape="825.28,682.98 824.71,684.02 822.63,684.73"/>
    </edge>
    <edge id=":2324610277_0" function="internal">
        <lane id=":2324610277_0_0" index="0" disallow="tram rail_urban rail rail_electric rail_fast ship" speed="6.63" length="9.23" shape="590.23,891.82 587.78,892.10 585.97,893.13 584.82,894.90 584.33,897.43"/>
    </edge>
    <edge id=":2324610277_1" function="internal">
        <lane id=":2324610277_1_0" index="0" disallow="tram rail_urban rail rail_electric rail_fast ship" speed="13.89" length="14.45" shape="590.23,891.82 575.78,891.52"/>
    </edge>
    <edge id=":2324610277_2" function="internal">
        <lane id=":2324610277_2_0" index="0" disallow="tram rail_urban rail rail_electric rail_fast ship" speed="3.65" length="2.34" shape="590.23,891.82 589.06,890.98 588.69,890.17"/>
    </edge>
    <edge id=":2324610277_9" function="internal">
        <lane id=":2324610277_9_0" index="0" disallow="tram rail_urban rail rail_electric rail_fast ship" speed="3.65" length="2.34" shape="588.69,890.17 589.11,889.38 590.34,888.62"/>
    </edge>
    <edge id=":2324610277_3" function="internal">
        <lane id=":2324610277_3_0" index="0" disallow="tram rail_urban rail rail_electric rail_fast ship" speed="13.89" length="14.53" shape="575.81,888.32 590.34,888.62"/>
    </edge>
    <edge id=":2324610277_4" function="internal">
        <lane id=":2324610277_4_0" index="0" disallow="tram rail_urban rail rail_electric rail_fast ship" speed="7.91" length="6.08" shape="575.81,888.32 579.74,888.92 581.52,890.04"/>
    </edge>
    <edge id=":2324610277_5" function="internal">
        <lane id=":2324610277_5_0" index="0" disallow="tram rail_urban rail rail_electric rail_fast ship" speed="3.65" length="2.34" shape="575.81,888.32 577.00,889.13 577.40,889.93"/>
    </edge>
    <edge id=":2324610277_10" function="internal">
        <lane id=":2324610277_10_0" index="0" disallow="tram rail_urban rail rail_electric rail_fast ship" speed="7.91" length="8.31" shape="581.52,890.04 582.47,890.63 584.00,893.47 584.33,897.43"/>
    </edge>
    <edge id=":2324610277_11" function="internal">
        <lane id=":2324610277_11_0" index="0" disallow="tram rail_urban rail rail_electric rail_fast ship" speed="3.65" length="2.34" shape="577.40,889.93 576.99,890.73 575.78,891.52"/>
    </edge>
    <edge id=":2324610277_6" function="internal">
        <lane id=":2324610277_6_0" index="0" disallow="tram rail_urban rail rail_electric rail_fast ship" speed="6.40" length="9.04" shape="581.13,897.24 580.92,894.75 579.96,892.97 578.25,891.89 575.78,891.52"/>
    </edge>
    <edge id=":2324610277_7" function="internal">
        <lane id=":2324610277_7_0" index="0" disallow="tram rail_urban rail rail_electric rail_fast ship" speed="8.10" length="14.30" shape="581.13,897.24 581.91,893.36 583.70,890.63 586.51,889.05 590.34,888.62"/>
    </edge>
    <edge id=":2324610277_8" function="internal">
        <lane id=":2324610277_8_0" index="0" disallow="tram rail_urban rail rail_electric rail_fast ship" speed="3.65" length="4.67" shape="581.13,897.24 582.00,896.09 582.82,895.74 583.60,896.18 584.33,897.43"/>
    </edge>
    <edge id=":248192789_0" function="internal">
        <lane id=":248192789_0_0" index="0" disallow="tram rail_urban rail rail_electric rail_fast ship" speed="8.00" length="9.54" shape="1119.09,955.38 1117.92,952.84 1116.43,950.98 1114.62,949.77 1112.49,949.24"/>
    </edge>
    <edge id=":248192789_1" function="internal">
        <lane id=":248192789_1_0" index="0" disallow="tram rail_urban rail rail_electric rail_fast ship" speed="3.69" length="4.81" shape="1119.09,955.38 1119.79,954.07 1120.57,953.57 1121.43,953.90 1122.37,955.05"/>
    </edge>
    <edge id=":248192789_2" function="internal">
        <lane id=":248192789_2_0" index="0" disallow="tram rail_urban rail rail_electric rail_fast ship" speed="5.65" length="8.49" shape="1126.93,950.22 1124.25,950.41 1122.60,951.27 1121.97,952.82 1122.37,955.05"/>
    </edge>
    <edge id=":248192789_3" function="internal">
        <lane id=":248192789_3_0" index="0" disallow="tram rail_urban rail rail_electric rail_fast ship" speed="13.89" length="14.40" shape="1126.93,950.22 1112.49,949.24"/>
        <lane id=":248192789_3_1" index="1" disallow="tram rail_urban rail rail_electric rail_fast ship" speed="13.89" length="14.40" shape="1127.09,947.03 1112.78,946.05"/>
    </edge>
    <edge id=":248193209_0" function="internal">
        <lane id=":248193209_0_0" index="0" disallow="tram rail_urban rail rail_electric rail_fast ship" speed="13.89" length="0.18" shape="1487.33,707.10 1487.30,707.13 1487.27,707.14 1487.25,707.15 1487.22,707.17"/>
        <lane id=":248193209_0_1" index="1" disallow="tram rail_urban rail rail_electric rail_fast ship" speed="13.89" length="0.18" shape="1485.07,704.83 1485.02,704.88 1484.98,704.90 1484.94,704.93 1484.90,704.97"/>
    </edge>
    <edge id=":248193209_2" function="internal">
        <lane id=":248193209_2_0" index="0" disallow="tram rail_urban rail rail_electric rail_fast ship" speed="13.89" length="0.36" shape="1480.28,700.60 1480.56,700.29"/>
        <lane id=":248193209_2_1" index="1" disallow="tram rail_urban rail rail_electric rail_fast ship" speed="13.89" length="0.36" shape="1482.61,702.80 1482.81,702.56"/>
    </edge>
    <edge id=":258933501_0" function="internal">
        <lane id=":258933501_0_0" index="0" disallow="tram rail_urban rail rail_electric rail_fast ship" speed="13.89" length="9.41" shape="1346.46,938.29 1343.84,937.62 1341.95,937.72 1340.03,938.27 1337.29,938.93"/>
    </edge>
    <edge id=":258933501_1" function="internal">