<?xml version="1.0" encoding="iso-8859-1"?>
<!-- This file is part of an OMNeT++ simulation example for Connected and Autonomous Vehicles class (Winter semester 2021-2022) -->

<!-- generated on Wed Nov 30 12:18:34 2011 by SUMO polyconvert Version 0.13.1

<configuration xmlns:xsi="http://www.w3.org/2001/XMLSchema-instance" xsi:noNamespaceSchemaLocation="http://sumo.sf.net/xsd/polyconvertConfiguration.xsd">

    <input>
        <osm-files value="erlangen.osm"/>
        <osm.keep-full-type value="false"/>
        <type-file value="erlangen.polytypes.xml"/>
    </input>

    <output>
        <output-file value="erlangen.poly.xml"/>
    </output>

    <projection>
        <proj.utm value="true"/>
    </projection>
</configuration>
-->

<shapes>
    <poly id="108331865" type="amenity.parking" color="184,184,179" fill="1" layer="-1.00" shape="1294.878156,1114.347985 1310.000000,1120.051640 1318.716437,1097.082860 1303.594971,1091.368069 1294.878156,1114.347985"/>
    <poly id="148555054" type="building.yes" color="255,230,230" fill="0" layer="-1.00" shape="1790.544992,1030.160946 1797.850251,1033.521055 1802.159517,1023.860770 1798.065374,1022.163331 1801.643203,1014.878853 1656.171928,947.358407 1663.557594,931.173008 1684.687409,940.976978 1688.971838,932.128302 1709.453649,941.450448 1711.508032,936.955868 1706.124041,934.506411 1709.597790,926.917209 1634.769396,893.804676 1630.986788,902.060847 1625.211198,899.429087 1623.228577,903.759533 1630.592005,907.121687 1629.600693,909.286909 1628.418859,908.739467 1625.848602,914.371553 1633.077116,917.661611 1635.638392,912.073705 1633.494733,911.098797 1634.493721,908.922745 1640.967253,911.871411 1637.321632,919.409361 1658.900921,929.030522 1651.362442,945.599549 1615.866110,930.232215 1616.064873,925.731417 1614.755321,921.427342 1612.092801,917.793661 1608.372371,915.253879 1604.018257,914.080726 1599.518273,914.404711 1595.380832,916.201300 1592.078344,919.255288 1589.971784,923.235765 1589.311123,927.685002 1590.159456,932.104521 1592.427880,935.989869 1595.864761,938.919256 1600.071088,940.531887 1604.581642,940.675879 1608.882970,939.319907 1612.431210,937.021464 1625.296607,942.781954 1604.303505,988.667777 1628.281741,999.585479 1634.531255,985.926943 1647.969227,992.055122 1641.831069,1005.461980 1664.862272,1015.941835 1670.842165,1002.873877 1684.600515,1009.148344 1678.564680,1022.347677 1700.904612,1032.522187 1707.114596,1018.951226 1721.058428,1025.299884 1714.649972,1039.308317 1737.716221,1049.812142 1744.061576,1035.934838 1757.620607,1042.112598"/>
    <poly id="148555059" type="building.school" color="255,230,230" fill="1" layer="-1.00" shape="1865.159694,1096.798252 1943.355756,1121.975881 1956.863797,1078.835469 1980.307629,1086.549861 1986.269674,1067.881881 1970.785542,1062.919051 1971.338788,1061.204187 2142.243672,1116.143532 2146.861977,1096.454184 2140.228613,1094.444842 2140.729281,1092.961701 2138.817833,1092.351978 1923.533366,1022.873444 1924.782577,1018.948371 1889.547854,1007.641679 1888.145155,1011.783363 1883.653849,1010.415324 1881.194801,1018.923850 1882.117104,1019.249613 1881.759244,1020.237439 1880.103495,1019.760336 1876.700255,1030.892331 1886.115353,1033.689965 1880.409192,1050.286346 1875.978211,1048.675773 1874.841078,1052.148840 1879.206682,1053.578718 1865.159694,1096.798252"/>
    <poly id="148555060" type="amenity.school" color="237,199,199" fill="1" layer="-1.00" shape="2142.243672,1116.143532 2122.364719,1202.983352 1972.116262,1156.283568 1806.284349,1101.749657 1812.174649,1091.517074 1745.814823,1065.616034 1640.134207,1019.666956 1489.590133,936.210367 1522.155187,867.011458 1554.885737,866.082917 1598.603064,869.104459 1624.979381,873.436984 1646.164146,878.533946 1666.637261,884.582648 1687.107455,892.178717 1792.777029,939.018708 1872.237698,984.060624 1890.445121,994.429431 1900.501974,999.156004 2023.345557,1049.560431 2038.016219,1054.747398 2138.690988,1078.286680 2141.850913,1080.693424 2141.880355,1082.152937 2138.817833,1092.351978 2140.729281,1092.961701 2140.228613,1094.444842 2146.861977,1096.454184 2142.243672,1116.143532"/>
    <poly id="148555097" type="building.yes" color="255,230,230" fill="1" layer="-1.00" shape="1679.025225,984.293007 1693.382852,990.813719 1699.839970,976.673588 1685.475073,970.152576 1679.025225,984.293007"/>
    <poly id="148555098" type="building.yes" color="255,230,230" fill="1" layer="-1.00" shape="1642.016987,967.563509 1656.374697,974.084121 1662.831731,959.943949 1648.466751,953.423036 1642.016987,967.563509"/>
    <poly id="148555099" type="building.yes" color="255,230,230" fill="1" layer="-1.00" shape="1714.983715,1000.614095 1729.348498,1007.135189 1735.805697,992.995099 1721.440882,986.473989 1714.983715,1000.614095"/>
    <poly id="148555100" type="building.yes" color="255,230,230" fill="1" layer="-1.00" shape="1751.141162,1017.032325 1763.925110,1023.012607 1769.552413,1010.621073 1756.399308,1004.626251 1751.141162,1017.032325"/>
    <poly id="165298203" type="building.office" color="255,230,230" fill="1" layer="-1.00" shape="830.169413,173.908846 810.138567,180.360112 829.485314,240.041063 833.266886,238.819947 835.446401,245.551296 842.546526,243.269051 840.405661,236.661668 849.561859,233.714126 830.169413,173.908846"/>
    <poly id="178404406" type="landuse.village_green" color="242,242,204" fill="1" layer="-3.00" shape="1341.154912,920.024785 1336.834175,913.387178 1334.007807,905.984477 1332.807038,898.166937 1333.269880,890.258887 1335.389171,882.627414 1339.071766,875.613962 1344.138533,869.534337 1350.376768,864.636231 1357.508620,861.164777 1365.209936,859.251966 1373.150631,858.996157 1380.960684,860.405080 1388.301647,863.420908 1394.845805,867.897177 1400.302944,873.655495 1404.148054,879.851438 1406.729250,886.665664 1407.932662,893.859919 1407.726221,901.143500 1406.105938,908.249074 1403.132966,914.911866 1398.933162,920.880782 1393.653657,925.916690 1387.497301,929.838316 1380.694146,932.509978 1373.502756,933.808249 1366.192241,933.710306 1359.031273,932.204440 1352.322966,929.324820 1346.286018,925.224758 1341.154912,920.024785"/>
    <poly id="178408147" type="building.retail" color="255,230,230" fill="1" layer="-1.00" shape="1327.665005,1131.321215 1315.845501,1127.728772 1332.575475,1073.113796 1344.394656,1076.717386 1327.665005,1131.321215"/>
    <poly id="178408147#1" type="shop.kitchen" color="237,199,255" fill="1" layer="-1.00" shape="1327.665005,1131.321215 1315.845501,1127.728772 1332.575475,1073.113796 1344.394656,1076.717386 1327.665005,1131.321215"/>
    <poly id="210939073" type="natural.water" color="181,209,209" fill="1" layer="-4.00" shape="1198.888399,609.624365 1205.114687,606.696036 1211.889930,605.481374 1218.753738,606.073632 1225.222444,608.420430 1230.859736,612.371049 1235.263060,617.653642 1238.142368,623.900585 1239.283053,630.669289 1238.623391,637.500905 1236.196190,643.929163 1232.178590,649.504594 1225.837600,654.432205 1218.305579,657.197930 1210.280194,657.573114 1202.524948,655.498670 1195.756246,651.191966 1190.618809,645.034536 1187.589833,637.612853 1186.953526,629.628272 1188.774768,621.829203 1192.880008,614.943568 1198.888399,609.624365"/>
    <poly id="213850448" type="building.yes" color="255,230,230" fill="1" layer="-1.00" shape="624.295690,362.887848 666.716540,348.751762 675.949035,376.253615 695.236822,433.749834 652.823757,447.885966 633.528361,390.389624 624.295690,362.887848"/>
    <poly id="223813244" type="amenity.parking" color="184,184,179" fill="1" layer="-1.00" shape="1480.460401,650.952098 1478.043119,648.819874 1413.330197,719.216125 1401.401037,727.987289 1384.452467,731.295686 1377.177769,737.845165 1366.882722,741.559714 1350.632834,744.984716 1334.136234,750.815794 1324.778309,761.680790 1319.113600,771.354964 1316.056756,780.708533 1313.786539,799.566616 1313.885815,810.513605 1315.805905,818.659960 1315.188981,826.984986 1311.887586,831.675633 1316.296031,835.344322 1321.156425,839.687574 1324.431631,835.663845 1332.872309,833.568511 1342.057551,829.865981 1348.804286,824.019329 1372.226094,800.782186 1473.323068,693.475512 1477.509435,688.407833 1480.084111,682.107915 1480.460401,650.952098"/>
    <poly id="223863064" type="natural.water" color="181,209,209" fill="1" layer="-4.00" shape="1191.182386,661.521356 1179.610946,625.165480 1143.341173,636.633369 1154.912816,672.989162 1191.182386,661.521356"/>
    <poly id="227387754" type="amenity.parking" color="184,184,179" fill="1" layer="-1.00" shape="1372.732446,1121.324734 1379.682251,1119.527163 1380.967779,1124.999127 1407.899001,1118.131063 1406.720441,1113.442559 1411.787903,1112.138813 1397.611275,1053.415196 1392.258871,1054.774557 1391.030610,1049.505223 1375.856032,1052.705164 1337.365072,1041.975503 1329.662644,1068.468516 1334.836542,1069.807244 1334.024387,1072.213327 1364.912425,1081.430860 1364.119797,1085.184721 1372.732446,1121.324734"/>
    <poly id="244039487" type="building.yes" color="255,230,230" fill="1" layer="-1.00" shape="687.648316,882.293899 688.777170,870.682633 682.176429,870.045661 681.047589,881.656928 687.648316,882.293899"/>
    <poly id="244039487#1" type="man_made.reservoir_covered" color="255,230,230" fill="1" layer="-1.00" shape="687.648316,882.293899 688.777170,870.682633 682.176429,870.045661 681.047589,881.656928 687.648316,882.293899"/>
    <poly id="244039487#2" type="natural.water" color="181,209,209" fill="1" layer="-4.00" shape="687.648316,882.293899 688.777170,870.682633 682.176429,870.045661 681.047589,881.656928 687.648316,882.293899"/>
    <poly id="25691793" type="natural.water" color="181,209,209" fill="1" layer="-4.00" shape="938.425953,907.760787 1138.241891,927.487649 1166.837800,929.010658 1114.353620,768.293307 1104.985335,770.196733 1101.658980,758.343905 1041.401323,779.079643 969.980755,777.803926 963.260171,790.019716 940.359835,893.565010 935.496193,902.057516 938.425953,907.760787"/>
    <poly id="25691819" type="natural.water" color="181,209,209" fill="1" layer="-4.00" shape="1175.668773,926.384929 1210.976022,906.151844 1229.962559,881.381901 1241.953665,861.046341 1267.044599,805.991315 1279.720577,778.190650 1282.170831,759.729262 1270.411310,725.046729 1266.790419,718.303087 1260.686679,715.157899 1250.826665,713.702079 1234.833417,715.022359 1146.327621,743.053022 1122.236073,757.514806 1175.668773,926.384929"/>
    <poly id="25691821" type="natural.water" color="181,209,209" fill="1" layer="-4.00" shape="1025.158394,757.569514 1124.285277,725.612079 1110.645648,683.575665 1011.525364,715.533650 1025.158394,757.569514"/>
    <poly id="25691828" type="natural.water" color="181,209,209" fill="1" layer="-4.00" shape="1008.681056,706.171170 1107.609099,675.051637 1106.536625,671.714397 1100.856624,654.069494 1092.850289,629.197529 994.432665,659.669454 997.858923,671.570641 1021.955435,672.693718 1024.778466,682.044238 1004.670903,694.002164 1008.681056,706.171170"/>
    <poly id="25691831" type="natural.water" color="181,209,209" fill="1" layer="-4.00" shape="1165.362277,719.832125 1153.289141,682.220928 1249.174913,651.630165 1260.278709,686.220088 1258.252579,686.864141 1259.214127,689.885357 1165.362277,719.832125"/>
    <poly id="296950327" type="building.industrial" color="255,230,230" fill="1" layer="-1.00" shape="1114.401740,417.282415 1079.335500,307.656366 1104.069127,299.787524 1139.134514,409.424859 1114.401740,417.282415"/>
    <poly id="314738680" type="building.yes" color="255,230,230" fill="1" layer="-1.00" shape="1633.541005,588.840410 1643.016040,598.430672 1658.585385,582.466932 1649.477757,572.935624 1648.486240,573.998732 1647.359860,573.698385 1645.036816,575.621978 1644.964877,577.266740 1637.591726,584.646962 1635.658436,584.771310 1633.749740,586.666673 1633.541005,588.840410"/>
    <poly id="314738681" type="building.yes" color="255,230,230" fill="1" layer="-1.00" shape="1636.174075,621.060882 1678.946046,678.572182 1721.170091,647.359417 1713.451681,636.980922 1696.151292,649.770470 1661.097826,602.637442 1636.174075,621.060882"/>
    <poly id="339703922" type="building.apartments" color="255,230,230" fill="1" layer="-1.00" shape="504.032645,403.946502 518.306927,446.206226 519.697692,450.312765 538.378901,444.041492 535.735052,436.201153 560.896017,427.745524 547.881901,389.230877 512.788925,401.016178 504.032645,403.946502"/>
    <poly id="339708927" type="landuse.grass" color="194,194,130" fill="1" layer="-3.00" shape="954.731050,554.549141 942.281066,558.680963 940.782410,554.191565 929.147669,558.054803 930.646769,562.533082 854.545276,587.770764 853.046560,583.281391 841.066958,587.253750 842.565682,591.743119 828.367888,596.452375 826.784637,591.714789 821.841347,593.357932 792.114400,502.411614 856.401159,481.207471 900.045329,466.931900 925.352309,458.650626 929.944381,457.093990 931.738179,455.349743 932.400988,452.681713 931.856630,450.478448 898.245433,461.618056 838.610633,481.389825 836.750977,482.040558 782.696021,499.849616 787.984950,515.664224 757.994592,525.443636 785.410464,610.254389 796.361933,641.775824 801.545002,650.294681 806.248948,654.019031 812.288007,656.971906 815.523329,654.883343 818.172471,651.658588 819.871279,647.895648 820.291371,642.724470 814.807380,625.788943 816.649837,613.548842 821.814880,606.615425 833.865824,598.415561 849.551303,593.297059 893.174683,578.419535 955.880556,557.588791 959.853130,553.525398 961.104999,548.776463 960.896422,543.001762 936.740010,466.088079 934.523478,464.375879 931.419345,463.853438 927.430425,465.188805 928.024047,467.060032 933.338830,465.375876 959.026213,543.551849 954.569554,545.169426 955.868915,549.194592 953.061996,550.153249 954.731050,554.549141"/>
    <poly id="339708928" type="amenity.parking" color="184,184,179" fill="1" layer="-1.00" shape="821.841347,593.357932 792.114400,502.411614 856.401159,481.207471 900.045329,466.931900 925.352309,458.650626 927.430425,465.188805 928.024047,467.060032 933.338830,465.375876 959.026213,543.551849 954.569554,545.169426 955.868915,549.194592 953.061996,550.153249 954.731050,554.549141 942.281066,558.680963 940.782410,554.191565 929.147669,558.054803 930.646769,562.533082 854.545276,587.770764 853.046560,583.281391 841.066958,587.253750 842.565682,591.743119 828.367888,596.452375 826.784637,591.714789 821.841347,593.357932"/>
    <poly id="371436524" type="natural.water" color="181,209,209" fill="1" layer="-4.00" shape="1197.980407,598.957362 1198.459850,600.779615 1198.328214,602.655810 1197.593353,604.385874 1196.341870,605.795088 1194.703362,606.721555 1192.811608,607.081467 1190.916203,606.795562 1189.218513,605.905140 1187.895570,604.517339 1187.116297,602.761245 1186.944353,600.862003 1187.416189,598.999160 1188.464737,597.403862 1189.982554,596.227745 1191.774897,595.630152 1193.659932,595.626210 1195.440916,596.241594 1196.939940,597.391397 1197.980407,598.957362"/>
    <poly id="371436525" type="natural.water" color="181,209,209" fill="1" layer="-4.00" shape="1177.195789,613.370630 1139.916411,625.255349 1136.111840,613.394872 1173.398089,601.521525 1177.195789,613.370630"/>
    <poly id="374566530" type="building.university" color="255,230,230" fill="1" layer="-1.00" shape="736.682831,377.485104 753.548330,371.867024 745.459629,347.749484 768.400455,340.098395 765.823154,332.416385 785.054091,326.011590 779.879972,310.591129 721.253490,330.136576 705.460428,335.395992 722.599777,386.473940 737.974455,381.342916 736.682831,377.485104"/>
    <poly id="374566531" type="building.university" color="255,230,230" fill="1" layer="-1.00" shape="783.153117,339.006397 779.820589,340.055883 748.575668,350.376275 757.825231,378.357650 770.405739,374.230503 784.719847,369.525620 792.402097,366.998950 783.153117,339.006397"/>
    <poly id="374566532" type="building.yes" color="255,230,230" fill="1" layer="-1.00" shape="811.407983,328.769439 800.706359,296.033269 817.750536,290.489160 824.359501,288.343506 835.060571,321.090840 811.407983,328.769439"/>
    <poly id="374566532#1" type="historic.ruins" color="128,255,128" fill="1" layer="-1.00" shape="811.407983,328.769439 800.706359,296.033269 817.750536,290.489160 824.359501,288.343506 835.060571,321.090840 811.407983,328.769439"/>
    <poly id="374566533" type="amenity.fast_food" color="237,199,199" fill="1" layer="-1.00" shape="825.360732,369.191817 817.796401,346.686606 823.893364,344.654485 840.612988,339.064343 848.177242,361.569588 825.360732,369.191817"/>
    <poly id="374566533#1" type="building.university" color="255,230,230" fill="1" layer="-1.00" shape="825.360732,369.191817 817.796401,346.686606 823.893364,344.654485 840.612988,339.064343 848.177242,361.569588 825.360732,369.191817"/>
    <poly id="377103323" type="landuse.commercial" color="209,209,204" fill="1" layer="-3.00" shape="363.236527,556.372986 364.832774,561.344694 367.145462,573.023735 367.207046,588.878402 365.987026,597.647409 362.246297,619.899155 361.917495,627.567521 363.578699,645.154559 385.571897,708.410498 380.476502,712.653013 388.275673,727.140408 400.315399,762.210119 401.386778,766.883016 402.890496,773.476429 408.393552,772.155386 410.498774,769.855421 412.937255,767.189994 436.319116,755.246735 468.340351,725.930146 472.288619,729.702564 478.590480,720.564618 480.254434,710.644107 479.840661,702.134035 448.534766,558.205592 445.272397,546.901255 441.259601,533.652830 426.909061,490.555427 371.403022,508.812658 369.478776,513.713521 352.405127,519.302330 351.121450,519.686303 358.204426,540.635700 363.236527,556.372986"/>
    <poly id="377103326" type="amenity.parking" color="184,184,179" fill="1" layer="-1.00" shape="447.648034,733.603515 433.062818,747.683056 425.143341,752.772450 414.008575,757.034781 400.315399,762.210119 388.275673,727.140408 380.476502,712.653013 385.571897,708.410498 387.550152,706.762359 400.268438,711.133693 414.998369,706.700220 439.730484,703.982711 455.437751,703.661961 457.667014,709.682631 457.389855,714.915066 447.648034,733.603515"/>
    <poly id="377213307" type="amenity.parking" color="184,184,179" fill="1" layer="-1.00" shape="1277.839782,826.642645 1273.719663,821.538106 1270.296128,826.201715 1259.720580,850.544782 1244.219521,882.175407 1214.023616,916.602280 1212.648783,924.663777 1206.990423,931.599742 1206.807345,936.078884 1246.007415,937.818207 1257.013113,935.378184 1263.419312,935.429340 1263.567377,933.320010 1273.862975,933.457104 1273.780483,935.557877 1280.753462,934.651664 1294.378341,932.893448 1302.578420,921.415199 1305.491584,913.503189 1305.605032,886.433792 1302.479805,871.872413 1291.396306,856.352837 1285.754599,848.461113 1282.194527,850.325136 1275.089258,843.889952 1274.211627,839.101983 1275.163555,834.797751 1279.960616,829.308625 1277.839782,826.642645"/>
    <poly id="377283178" type="man_made.embankment" color="255,230,230" fill="0" layer="-1.00" shape="524.532024,651.382903 511.174129,615.181492 514.266329,601.554173 557.237100,574.236065 573.213473,571.310084 586.082369,578.136824 595.452839,599.331974 604.957758,636.907932"/>
    <poly id="377315931" type="building.university" color="255,230,230" fill="1" layer="-1.00" shape="821.807902,379.750729 888.337969,357.766431 900.867699,395.450402 834.338013,417.434537 817.209782,423.097733 783.850041,434.114303 729.777748,451.990017 727.750740,452.656497 715.219582,414.984067 717.232125,414.317014 771.319205,396.441735 804.716201,385.404269 821.807902,379.750729"/>
    <poly id="377624994" type="natural.heath" color="140,196,107" fill="1" layer="-4.00" shape="568.003565,1066.546418 585.171574,1044.252571 597.311319,1039.306359 604.195531,1044.362709 611.990994,1028.548379 612.507889,1021.455107 570.947809,1013.917089 569.515171,1021.998686 534.897632,1015.990617 494.856826,1010.750219 463.956432,1006.446558 470.141911,1020.102870 481.049940,1024.403630 475.711641,1051.535538 462.550951,1064.980490 445.798893,1070.726203 448.164767,1079.735664 446.080029,1088.370647 441.428988,1093.120289 436.940234,1119.294684 434.721840,1169.336325 397.696838,1165.227567 398.338908,1208.490230 402.470396,1208.495963 420.348291,1206.200645 435.429880,1201.268984 428.815325,1240.652109 516.407652,1248.977273 508.749642,1209.425330 564.287617,1194.822543 557.445496,1186.472735 553.217540,1172.447615 556.941411,1160.459216 556.400653,1139.086409 555.333859,1115.410906 561.474425,1095.201308 567.161750,1083.979959 568.003565,1066.546418"/>
    <poly id="377625018" type="building.yes" color="255,230,230" fill="1" layer="-1.00" shape="841.404120,1075.350431 839.417719,1062.592917 830.698302,1064.232763 829.096851,1053.304902 804.451944,1057.526833 804.565072,1058.154673 808.616155,1081.490806 841.404120,1075.350431"/>
    <poly id="377625063" type="natural.scrub" color="140,196,107" fill="1" layer="-4.00" shape="556.400653,1139.086409 556.941411,1160.459216 553.217540,1172.447615 557.445496,1186.472735 564.287617,1194.822543 594.243037,1186.944575 603.396776,1195.496249 617.676466,1286.037290 645.424294,1314.720595 657.850706,1312.991867 659.425402,1302.210709 653.421870,1294.850972 641.780037,1289.129556 629.562962,1276.439115 635.742434,1270.235489 634.015423,1244.919912 634.558823,1226.227866 640.756246,1224.010293 645.252694,1201.921839 641.138659,1183.882351 653.817767,1189.221340 656.944178,1188.609032 657.403265,1184.474677 661.568995,1182.311155 669.424942,1182.908224 672.485564,1181.569751 665.416514,1175.871521 660.179375,1175.777767 639.319803,1175.907234 627.237365,1168.287266 613.738972,1169.061272 608.257236,1175.770929 597.699883,1173.632139 588.703491,1175.873785 584.591355,1164.446984 591.487388,1154.753563 579.362638,1148.211880 569.091250,1144.136200 560.723546,1108.274569 575.814146,1086.456008 577.960733,1094.210145 599.037635,1104.831549 604.361187,1109.570771 608.364542,1109.148613 608.222544,1105.369222 601.575307,1103.149728 579.947286,1081.051663 585.425828,1073.128434 592.944503,1069.938348 602.116172,1056.927544 607.768830,1055.668234 609.940722,1054.072288 609.651250,1047.949351 604.195531,1044.362709 597.311319,1039.306359 585.171574,1044.252571 568.003565,1066.546418 567.161750,1083.979959 561.474425,1095.201308 555.333859,1115.410906 556.400653,1139.086409"/>
    <poly id="379136145" type="landuse.grass" color="194,194,130" fill="1" layer="-3.00" shape="588.423513,266.192014 594.046023,264.241260 593.126702,261.611474 587.503755,263.573344 588.423513,266.192014"/>
    <poly id="379136147" type="landuse.grass" color="194,194,130" fill="1" layer="-3.00" shape="573.760580,270.917164 582.998941,267.716363 582.079180,265.097694 572.840816,268.298497 573.760580,270.917164"/>
    <poly id="382134800" type="waterway.drain" color="181,209,209" fill="0" layer="-4.00" shape="2242.234429,715.544126 2256.019419,717.290159"/>
    <poly id="382134801" type="waterway.drain" color="181,209,209" fill="0" layer="-4.00" shape="1658.532489,837.040231 1742.311251,804.467861 1796.104316,784.687527 2034.342567,692.664714 2057.767544,691.517162 2242.234429,715.544126"/>
    <poly id="382134815" type="landuse.forest" color="140,196,107" fill="1" layer="-3.00" shape="2625.860015,615.166533 2510.267514,617.814419 2459.811256,625.485137 2367.919808,640.961292 2339.590704,657.800066 2325.138131,678.481694 2309.031952,692.385230 2297.354543,703.368703 2291.110581,706.361918 2284.885902,707.763958 2266.719396,709.763644 2257.270575,708.912233 2254.845346,720.038098 2262.978321,720.982324 2260.969178,732.402911 2273.539182,733.522178 2279.089598,733.407160 2290.965517,728.966247 2314.357390,712.489076 2322.480899,709.447590 2325.803539,714.532644 2330.385135,713.065818 2328.855491,718.026208 2336.266636,722.381997 2336.639986,726.515747 2352.993436,732.248616 2357.163090,726.891452 2359.988916,680.268811 2401.546850,657.963003 2460.535379,653.233636 2473.579265,645.477198 2491.662965,655.130636 2517.356780,654.553324 2517.707616,650.258901 2536.737068,651.199694 2547.849722,651.594074 2571.122474,650.275702 2599.035410,650.966477 2604.103930,659.015143 2597.453201,669.729050 2600.597587,673.081705 2621.250541,664.123337 2625.636025,661.201774 2636.081207,651.884670 2648.841350,657.187000 2660.986865,653.826235 2665.195449,649.328025 2670.501485,643.659744 2671.808426,637.922482 2668.661669,629.860634 2678.255618,622.090780 2678.955362,617.409377 2679.657586,615.600263 2638.589340,615.380053 2638.501165,624.950535 2639.710739,627.547677 2644.355690,630.536614 2646.204822,634.194354 2627.373311,634.663700 2616.754811,634.054902 2616.793581,630.137788 2618.725722,626.740782 2622.075881,624.702307 2625.767629,621.174441 2625.860015,615.166533"/>
    <poly id="382134825" type="waterway.drain" color="181,209,209" fill="0" layer="-4.00" shape="2256.019419,717.290159 2275.154576,719.035763 2294.772852,715.334451 2322.055226,695.248019 2352.617835,670.303803 2379.103778,656.999280 2399.779614,650.389954 2503.459627,640.589854 2670.501485,643.659744 2683.861808,643.864914 2800.619993,646.020419 2805.724766,649.662239 2809.653085,657.387713 2816.056556,661.370348 2823.685003,663.341915"/>
    <poly id="382134829" type="landuse.grass" color="194,194,130" fill="1" layer="-3.00" shape="2337.142757,732.146356 2334.595326,761.246328 2318.092623,759.849287 2315.810796,777.626880 2330.782018,778.885560 2322.253958,838.664443 2365.978299,844.275147 2363.345806,893.710816 2367.980784,894.561694 2371.927307,878.141180 2400.367390,881.790803 2404.069904,864.392147 2412.595483,865.118327 2440.357930,748.031757 2449.589622,708.842467 2458.265239,710.732405 2468.823480,684.587135 2473.579265,645.477198 2460.535379,653.233636 2401.546850,657.963003 2359.988916,680.268811 2357.163090,726.891452 2352.993436,732.248616 2336.639986,726.515747 2336.266636,722.381997 2328.855491,718.026208 2330.385135,713.065818 2325.803539,714.532644 2322.480899,709.447590 2314.357390,712.489076 2290.965517,728.966247 2279.089598,733.407160 2337.142757,732.146356"/>
    <poly id="382134829#1" type="natural.scrub" color="140,196,107" fill="1" layer="-4.00" shape="2337.142757,732.146356 2334.595326,761.246328 2318.092623,759.849287 2315.810796,777.626880 2330.782018,778.885560 2322.253958,838.664443 2365.978299,844.275147 2363.345806,893.710816 2367.980784,894.561694 2371.927307,878.141180 2400.367390,881.790803 2404.069904,864.392147 2412.595483,865.118327 2440.357930,748.031757 2449.589622,708.842467 2458.265239,710.732405 2468.823480,684.587135 2473.579265,645.477198 2460.535379,653.233636 2401.546850,657.963003 2359.988916,680.268811 2357.163090,726.891452 2352.993436,732.248616 2336.639986,726.515747 2336.266636,722.381997 2328.855491,718.026208 2330.385135,713.065818 2325.803539,714.532644 2322.480899,709.447590 2314.357390,712.489076 2290.965517,728.966247 2279.089598,733.407160 2337.142757,732.146356"/>
    <poly id="382134845" type="landuse.grass" color="194,194,130" fill="1" layer="-3.00" shape="2259.666361,777.560478 2242.377964,773.293891 2247.487599,750.351032 2265.378378,754.786115 2283.057210,756.875077 2276.392432,761.532707 2276.731593,765.063948 2277.086832,772.414261 2264.358534,770.164356 2258.809525,772.817645 2259.666361,777.560478"/>
    <poly id="382134845#1" type="natural.scrub" color="140,196,107" fill="1" layer="-4.00" shape="2259.666361,777.560478 2242.377964,773.293891 2247.487599,750.351032 2265.378378,754.786115 2283.057210,756.875077 2276.392432,761.532707 2276.731593,765.063948 2277.086832,772.414261 2264.358534,770.164356 2258.809525,772.817645 2259.666361,777.560478"/>