<?xml version="1.0"?>
<!-- This file is part of an OMNeT++ simulation example for Connected and Autonomous Vehicles class (Winter semester 2021-2022) -->

<routes>
   <vType id="vtype0" accel="2.6" decel="4.5" sigma="0.5" length="2.5" minGap="2.5" maxSpeed="14" color="1,1,0"/>
   <route id="route0" edges="194714681 570976823 561267720 425555627#1-AddedOnRampEdge 425555627#1"/>
   <route id="route1" edges="194714681 570976823 467392238 467392235#1 426538578 426538581#0 426538581#1 426538581#2 366838967 364154088#0 188215405 385080086#0 377213300 23888931 388280781 385079851 388040068 594713490 9232836#0 178404405"/>
   <flow id="flow0" type="vtype0" route="route0" begin="0" period="10" number="195"/>
   <flow id="flow1" type="vtype0" route="route1" begin="0" period="20" number="195"/>
</routes>
